* NGSPICE file created from spm.ext - technology: sky130A

* Black-box entry subcircuit for sky130_fd_sc_hd__tapvpwrvgnd_1 abstract view
.subckt sky130_fd_sc_hd__tapvpwrvgnd_1 VGND VPWR
.ends

* Black-box entry subcircuit for sky130_ef_sc_hd__decap_12 abstract view
.subckt sky130_ef_sc_hd__decap_12 VPWR VGND VPB VNB
.ends

* Black-box entry subcircuit for sky130_fd_sc_hd__decap_3 abstract view
.subckt sky130_fd_sc_hd__decap_3 VGND VNB VPB VPWR
.ends

* Black-box entry subcircuit for sky130_fd_sc_hd__xnor2_1 abstract view
.subckt sky130_fd_sc_hd__xnor2_1 A B VGND VNB VPB VPWR Y
.ends

* Black-box entry subcircuit for sky130_fd_sc_hd__inv_2 abstract view
.subckt sky130_fd_sc_hd__inv_2 A VGND VNB VPB VPWR Y
.ends

* Black-box entry subcircuit for sky130_fd_sc_hd__dfrtp_1 abstract view
.subckt sky130_fd_sc_hd__dfrtp_1 CLK D RESET_B VGND VNB VPB VPWR Q
.ends

* Black-box entry subcircuit for sky130_fd_sc_hd__nand2_1 abstract view
.subckt sky130_fd_sc_hd__nand2_1 A B VGND VNB VPB VPWR Y
.ends

* Black-box entry subcircuit for sky130_fd_sc_hd__decap_8 abstract view
.subckt sky130_fd_sc_hd__decap_8 VGND VNB VPB VPWR
.ends

* Black-box entry subcircuit for sky130_fd_sc_hd__xor2_1 abstract view
.subckt sky130_fd_sc_hd__xor2_1 A B VGND VNB VPB VPWR X
.ends

* Black-box entry subcircuit for sky130_fd_sc_hd__fill_1 abstract view
.subckt sky130_fd_sc_hd__fill_1 VGND VNB VPB VPWR
.ends

* Black-box entry subcircuit for sky130_fd_sc_hd__and2_1 abstract view
.subckt sky130_fd_sc_hd__and2_1 A B VGND VNB VPB VPWR X
.ends

* Black-box entry subcircuit for sky130_fd_sc_hd__decap_4 abstract view
.subckt sky130_fd_sc_hd__decap_4 VGND VNB VPB VPWR
.ends

* Black-box entry subcircuit for sky130_fd_sc_hd__clkbuf_16 abstract view
.subckt sky130_fd_sc_hd__clkbuf_16 A VGND VNB VPB VPWR X
.ends

* Black-box entry subcircuit for sky130_fd_sc_hd__a31o_1 abstract view
.subckt sky130_fd_sc_hd__a31o_1 A1 A2 A3 B1 VGND VNB VPB VPWR X
.ends

* Black-box entry subcircuit for sky130_fd_sc_hd__fill_2 abstract view
.subckt sky130_fd_sc_hd__fill_2 VGND VNB VPB VPWR
.ends

* Black-box entry subcircuit for sky130_fd_sc_hd__decap_6 abstract view
.subckt sky130_fd_sc_hd__decap_6 VGND VNB VPB VPWR
.ends

* Black-box entry subcircuit for sky130_fd_sc_hd__clkbuf_4 abstract view
.subckt sky130_fd_sc_hd__clkbuf_4 A VGND VNB VPB VPWR X
.ends

* Black-box entry subcircuit for sky130_fd_sc_hd__buf_2 abstract view
.subckt sky130_fd_sc_hd__buf_2 A VGND VNB VPB VPWR X
.ends

* Black-box entry subcircuit for sky130_fd_sc_hd__buf_4 abstract view
.subckt sky130_fd_sc_hd__buf_4 A VGND VNB VPB VPWR X
.ends

* Black-box entry subcircuit for sky130_fd_sc_hd__clkbuf_2 abstract view
.subckt sky130_fd_sc_hd__clkbuf_2 A VGND VNB VPB VPWR X
.ends

* Black-box entry subcircuit for sky130_fd_sc_hd__clkbuf_1 abstract view
.subckt sky130_fd_sc_hd__clkbuf_1 A VGND VNB VPB VPWR X
.ends

* Black-box entry subcircuit for sky130_fd_sc_hd__buf_1 abstract view
.subckt sky130_fd_sc_hd__buf_1 A VGND VNB VPB VPWR X
.ends

* Black-box entry subcircuit for sky130_fd_sc_hd__nand3_1 abstract view
.subckt sky130_fd_sc_hd__nand3_1 A B C VGND VNB VPB VPWR Y
.ends

* Black-box entry subcircuit for sky130_fd_sc_hd__a21o_1 abstract view
.subckt sky130_fd_sc_hd__a21o_1 A1 A2 B1 VGND VNB VPB VPWR X
.ends

* Black-box entry subcircuit for sky130_fd_sc_hd__dlygate4sd3_1 abstract view
.subckt sky130_fd_sc_hd__dlygate4sd3_1 A VGND VNB VPB VPWR X
.ends

.subckt spm VGND VPWR clk p rst x[0] x[10] x[11] x[12] x[13] x[14] x[15] x[16] x[17]
+ x[18] x[19] x[1] x[20] x[21] x[22] x[23] x[24] x[25] x[26] x[27] x[28] x[29] x[2]
+ x[30] x[31] x[3] x[4] x[5] x[6] x[7] x[8] x[9] y
XTAP_TAPCELL_ROW_32_172 VGND VPWR sky130_fd_sc_hd__tapvpwrvgnd_1
XFILLER_0_27_93 VPWR VGND VPWR VGND sky130_ef_sc_hd__decap_12
XTAP_TAPCELL_ROW_9_115 VGND VPWR sky130_fd_sc_hd__tapvpwrvgnd_1
XPHY_EDGE_ROW_11_1_Left_43 VGND VGND VPWR VPWR sky130_fd_sc_hd__decap_3
X_294_ _156_ _157_ VGND VGND VPWR VPWR genblk1\[19\].csa.hsum2 sky130_fd_sc_hd__xnor2_1
X_363_ net46 VGND VGND VPWR VPWR _047_ sky130_fd_sc_hd__inv_2
X_432_ clknet_3_0__leaf_clk genblk1\[8\].csa.hsum2 _052_ VGND VGND VPWR VPWR genblk1\[7\].csa.y
+ sky130_fd_sc_hd__dfrtp_1
XTAP_TAPCELL_ROW_6_107 VGND VPWR sky130_fd_sc_hd__tapvpwrvgnd_1
X_415_ clknet_3_7__leaf_clk _032_ _035_ VGND VGND VPWR VPWR tcmp.z sky130_fd_sc_hd__dfrtp_1
X_346_ net43 net25 VGND VGND VPWR VPWR _189_ sky130_fd_sc_hd__nand2_1
XFILLER_0_18_29 VGND VGND VPWR VPWR sky130_fd_sc_hd__decap_8
X_277_ genblk1\[16\].csa.sc genblk1\[16\].csa.y VGND VGND VPWR VPWR _148_ sky130_fd_sc_hd__xor2_1
XPHY_EDGE_ROW_25_Right_16 VGND VGND VPWR VPWR sky130_fd_sc_hd__decap_3
XFILLER_0_24_83 VGND VGND VPWR VPWR sky130_fd_sc_hd__fill_1
X_200_ genblk1\[1\].csa.sc genblk1\[1\].csa.y VGND VGND VPWR VPWR _101_ sky130_fd_sc_hd__and2_1
XFILLER_0_0_29 VPWR VGND VPWR VGND sky130_ef_sc_hd__decap_12
X_329_ _177_ _178_ VGND VGND VPWR VPWR genblk1\[26\].csa.hsum2 sky130_fd_sc_hd__xnor2_1
XFILLER_0_19_169 VGND VGND VPWR VPWR sky130_fd_sc_hd__decap_4
XFILLER_0_19_136 VGND VGND VPWR VPWR sky130_fd_sc_hd__decap_4
XFILLER_0_19_83 VGND VGND VPWR VPWR sky130_fd_sc_hd__fill_1
XFILLER_0_18_191 VGND VGND VPWR VPWR sky130_fd_sc_hd__fill_1
XPHY_EDGE_ROW_10_2_Left_66 VGND VGND VPWR VPWR sky130_fd_sc_hd__decap_3
XFILLER_0_15_150 VPWR VGND VPWR VGND sky130_ef_sc_hd__decap_12
XFILLER_0_32_50 VGND VGND VPWR VPWR sky130_fd_sc_hd__decap_3
XFILLER_0_8_169 VPWR VGND VPWR VGND sky130_ef_sc_hd__decap_12
XFILLER_0_7_191 VGND VGND VPWR VPWR sky130_fd_sc_hd__fill_1
XTAP_TAPCELL_ROW_32_173 VGND VPWR sky130_fd_sc_hd__tapvpwrvgnd_1
XTAP_TAPCELL_ROW_9_116 VGND VPWR sky130_fd_sc_hd__tapvpwrvgnd_1
X_362_ net47 VGND VGND VPWR VPWR _046_ sky130_fd_sc_hd__inv_2
Xclkbuf_3_6__f_clk clknet_0_clk VGND VGND VPWR VPWR clknet_3_6__leaf_clk sky130_fd_sc_hd__clkbuf_16
X_293_ net42 net12 _157_ _155_ VGND VGND VPWR VPWR _010_ sky130_fd_sc_hd__a31o_1
X_431_ clknet_3_0__leaf_clk _029_ _051_ VGND VGND VPWR VPWR genblk1\[8\].csa.sc sky130_fd_sc_hd__dfrtp_1
XFILLER_0_2_109 VGND VGND VPWR VPWR sky130_fd_sc_hd__decap_8
XPHY_EDGE_ROW_19_Left_51 VGND VGND VPWR VPWR sky130_fd_sc_hd__decap_3
X_276_ net42 net9 VGND VGND VPWR VPWR _147_ sky130_fd_sc_hd__nand2_1
X_345_ genblk1\[30\].csa.sc genblk1\[30\].csa.y VGND VGND VPWR VPWR _188_ sky130_fd_sc_hd__and2_1
XPHY_EDGE_ROW_16_1_Right_80 VGND VGND VPWR VPWR sky130_fd_sc_hd__decap_3
X_414_ clknet_3_0__leaf_clk csa0.hsum2 _034_ VGND VGND VPWR VPWR net35 sky130_fd_sc_hd__dfrtp_1
X_259_ _135_ _136_ VGND VGND VPWR VPWR genblk1\[12\].csa.hsum2 sky130_fd_sc_hd__xnor2_1
X_328_ net41 net20 _178_ _176_ VGND VGND VPWR VPWR _018_ sky130_fd_sc_hd__a31o_1
XFILLER_0_19_148 VPWR VGND VPWR VGND sky130_ef_sc_hd__decap_12
XFILLER_0_1_51 VGND VGND VPWR VPWR sky130_fd_sc_hd__decap_4
XFILLER_0_21_176 VGND VGND VPWR VPWR sky130_fd_sc_hd__fill_2
XFILLER_0_16_41 VGND VGND VPWR VPWR sky130_fd_sc_hd__fill_2
XFILLER_0_32_62 VGND VGND VPWR VPWR sky130_fd_sc_hd__decap_3
XPHY_EDGE_ROW_6_Right_6 VGND VGND VPWR VPWR sky130_fd_sc_hd__decap_3
XTAP_TAPCELL_ROW_32_174 VGND VPWR sky130_fd_sc_hd__tapvpwrvgnd_1
X_361_ net46 VGND VGND VPWR VPWR _045_ sky130_fd_sc_hd__inv_2
X_292_ genblk1\[19\].csa.sc genblk1\[19\].csa.y VGND VGND VPWR VPWR _157_ sky130_fd_sc_hd__xor2_1
X_430_ clknet_3_2__leaf_clk genblk1\[7\].csa.hsum2 _050_ VGND VGND VPWR VPWR genblk1\[6\].csa.y
+ sky130_fd_sc_hd__dfrtp_1
XFILLER_0_4_162 VGND VGND VPWR VPWR sky130_fd_sc_hd__fill_2
XTAP_TAPCELL_ROW_9_117 VGND VPWR sky130_fd_sc_hd__tapvpwrvgnd_1
X_275_ genblk1\[16\].csa.sc genblk1\[16\].csa.y VGND VGND VPWR VPWR _146_ sky130_fd_sc_hd__and2_1
X_344_ _186_ _187_ VGND VGND VPWR VPWR genblk1\[29\].csa.hsum2 sky130_fd_sc_hd__xnor2_1
X_413_ clknet_3_1__leaf_clk _000_ _033_ VGND VGND VPWR VPWR csa0.sc sky130_fd_sc_hd__dfrtp_1
XFILLER_0_24_96 VGND VGND VPWR VPWR sky130_fd_sc_hd__fill_2
XPHY_EDGE_ROW_20_Left_52 VGND VGND VPWR VPWR sky130_fd_sc_hd__decap_3
XPHY_EDGE_ROW_4_Left_37 VGND VGND VPWR VPWR sky130_fd_sc_hd__decap_3
XFILLER_0_19_41 VPWR VGND VPWR VGND sky130_ef_sc_hd__decap_12
X_258_ net39 net5 _136_ _134_ VGND VGND VPWR VPWR _003_ sky130_fd_sc_hd__a31o_1
XFILLER_0_9_29 VGND VGND VPWR VPWR sky130_fd_sc_hd__decap_4
X_327_ genblk1\[26\].csa.sc genblk1\[26\].csa.y VGND VGND VPWR VPWR _178_ sky130_fd_sc_hd__xor2_1
XFILLER_0_18_160 VGND VGND VPWR VPWR sky130_fd_sc_hd__fill_2
XFILLER_0_24_141 VGND VGND VPWR VPWR sky130_fd_sc_hd__decap_4
XFILLER_0_21_86 VGND VGND VPWR VPWR sky130_fd_sc_hd__decap_3
XFILLER_0_21_75 VGND VGND VPWR VPWR sky130_fd_sc_hd__decap_4
XFILLER_0_21_64 VGND VGND VPWR VPWR sky130_fd_sc_hd__fill_1
XPHY_EDGE_ROW_7_Left_40 VGND VGND VPWR VPWR sky130_fd_sc_hd__decap_3
XFILLER_0_32_74 VGND VGND VPWR VPWR sky130_fd_sc_hd__decap_3
XFILLER_0_8_116 VGND VGND VPWR VPWR sky130_fd_sc_hd__fill_1
XFILLER_0_12_122 VPWR VGND VPWR VGND sky130_ef_sc_hd__decap_12
XFILLER_0_9_3 VGND VGND VPWR VPWR sky130_fd_sc_hd__decap_4
XFILLER_0_27_30 VPWR VGND VPWR VGND sky130_ef_sc_hd__decap_12
XTAP_TAPCELL_ROW_32_175 VGND VPWR sky130_fd_sc_hd__tapvpwrvgnd_1
X_360_ net46 VGND VGND VPWR VPWR _044_ sky130_fd_sc_hd__inv_2
X_291_ net42 net12 VGND VGND VPWR VPWR _156_ sky130_fd_sc_hd__nand2_1
XFILLER_0_4_141 VGND VGND VPWR VPWR sky130_fd_sc_hd__decap_6
XFILLER_0_7_62 VGND VGND VPWR VPWR sky130_fd_sc_hd__decap_6
XTAP_TAPCELL_ROW_9_118 VGND VPWR sky130_fd_sc_hd__tapvpwrvgnd_1
XTAP_TAPCELL_ROW_20_134 VGND VPWR sky130_fd_sc_hd__tapvpwrvgnd_1
XFILLER_0_1_111 VGND VGND VPWR VPWR sky130_fd_sc_hd__fill_1
X_274_ _144_ _145_ VGND VGND VPWR VPWR genblk1\[15\].csa.hsum2 sky130_fd_sc_hd__xnor2_1
X_343_ net43 net23 _187_ _185_ VGND VGND VPWR VPWR _021_ sky130_fd_sc_hd__a31o_1
X_412_ net52 VGND VGND VPWR VPWR _096_ sky130_fd_sc_hd__inv_2
XPHY_EDGE_ROW_30_Right_21 VGND VGND VPWR VPWR sky130_fd_sc_hd__decap_3
XPHY_EDGE_ROW_21_Right_12 VGND VGND VPWR VPWR sky130_fd_sc_hd__decap_3
XFILLER_0_28_139 VGND VGND VPWR VPWR sky130_fd_sc_hd__fill_1
XFILLER_0_19_53 VGND VGND VPWR VPWR sky130_fd_sc_hd__decap_3
X_257_ genblk1\[12\].csa.sc genblk1\[12\].csa.y VGND VGND VPWR VPWR _136_ sky130_fd_sc_hd__xor2_1
X_326_ net41 net20 VGND VGND VPWR VPWR _177_ sky130_fd_sc_hd__nand2_1
XFILLER_0_27_150 VPWR VGND VPWR VGND sky130_ef_sc_hd__decap_12
X_309_ _165_ _166_ VGND VGND VPWR VPWR genblk1\[22\].csa.hsum2 sky130_fd_sc_hd__xnor2_1
XFILLER_0_24_164 VGND VGND VPWR VPWR sky130_fd_sc_hd__decap_8
XFILLER_0_21_167 VGND VGND VPWR VPWR sky130_fd_sc_hd__fill_1
XFILLER_0_8_128 VGND VGND VPWR VPWR sky130_fd_sc_hd__fill_2
XFILLER_0_8_139 VGND VGND VPWR VPWR sky130_fd_sc_hd__fill_1
XFILLER_0_12_134 VGND VGND VPWR VPWR sky130_fd_sc_hd__fill_2
XFILLER_0_32_3 VGND VGND VPWR VPWR sky130_fd_sc_hd__fill_2
XFILLER_0_27_42 VPWR VGND VPWR VGND sky130_ef_sc_hd__decap_12
XTAP_TAPCELL_ROW_9_119 VGND VPWR sky130_fd_sc_hd__tapvpwrvgnd_1
XTAP_TAPCELL_ROW_23_143 VGND VPWR sky130_fd_sc_hd__tapvpwrvgnd_1
X_290_ genblk1\[19\].csa.sc genblk1\[19\].csa.y VGND VGND VPWR VPWR _155_ sky130_fd_sc_hd__and2_1
XFILLER_0_13_55 VGND VGND VPWR VPWR sky130_fd_sc_hd__fill_1
XTAP_TAPCELL_ROW_20_135 VGND VPWR sky130_fd_sc_hd__tapvpwrvgnd_1
XFILLER_0_1_189 VGND VGND VPWR VPWR sky130_fd_sc_hd__decap_3
XFILLER_0_1_167 VGND VGND VPWR VPWR sky130_fd_sc_hd__fill_1
X_273_ net38 net8 _145_ _143_ VGND VGND VPWR VPWR _006_ sky130_fd_sc_hd__a31o_1
X_411_ net52 VGND VGND VPWR VPWR _095_ sky130_fd_sc_hd__inv_2
X_342_ genblk1\[29\].csa.sc genblk1\[29\].csa.y VGND VGND VPWR VPWR _187_ sky130_fd_sc_hd__xor2_1
XFILLER_0_28_107 VPWR VGND VPWR VGND sky130_ef_sc_hd__decap_12
X_256_ net39 net5 VGND VGND VPWR VPWR _135_ sky130_fd_sc_hd__nand2_1
X_325_ genblk1\[26\].csa.sc genblk1\[26\].csa.y VGND VGND VPWR VPWR _176_ sky130_fd_sc_hd__and2_1
XFILLER_0_27_184 VGND VGND VPWR VPWR sky130_fd_sc_hd__decap_8
XFILLER_0_27_162 VGND VGND VPWR VPWR sky130_fd_sc_hd__decap_3
XFILLER_0_27_6 VGND VGND VPWR VPWR sky130_fd_sc_hd__decap_8
X_239_ _123_ _124_ VGND VGND VPWR VPWR genblk1\[8\].csa.hsum2 sky130_fd_sc_hd__xnor2_1
X_308_ net40 net16 _166_ _164_ VGND VGND VPWR VPWR _014_ sky130_fd_sc_hd__a31o_1
XFILLER_0_15_176 VPWR VGND VPWR VGND sky130_ef_sc_hd__decap_12
XFILLER_0_32_98 VGND VGND VPWR VPWR sky130_fd_sc_hd__decap_3
XFILLER_0_32_32 VGND VGND VPWR VPWR sky130_fd_sc_hd__decap_3
XFILLER_0_16_11 VGND VGND VPWR VPWR sky130_fd_sc_hd__decap_3
XFILLER_0_25_3 VGND VGND VPWR VPWR sky130_fd_sc_hd__decap_6
Xoutput35 net35 VGND VGND VPWR VPWR p sky130_fd_sc_hd__clkbuf_4
XTAP_TAPCELL_ROW_26_152 VGND VPWR sky130_fd_sc_hd__tapvpwrvgnd_1
Xclkbuf_3_1__f_clk clknet_0_clk VGND VGND VPWR VPWR clknet_3_1__leaf_clk sky130_fd_sc_hd__clkbuf_16
XFILLER_0_27_54 VGND VGND VPWR VPWR sky130_fd_sc_hd__fill_2
XTAP_TAPCELL_ROW_18_1_127 VGND VPWR sky130_fd_sc_hd__tapvpwrvgnd_1
XPHY_EDGE_ROW_15_1_Left_47 VGND VGND VPWR VPWR sky130_fd_sc_hd__decap_3
XFILLER_0_4_154 VGND VGND VPWR VPWR sky130_fd_sc_hd__fill_1
XFILLER_0_7_42 VPWR VGND VPWR VGND sky130_ef_sc_hd__decap_12
XFILLER_0_11_9 VGND VGND VPWR VPWR sky130_fd_sc_hd__fill_1
XTAP_TAPCELL_ROW_23_144 VGND VPWR sky130_fd_sc_hd__tapvpwrvgnd_1
XFILLER_0_13_12 VPWR VGND VPWR VGND sky130_ef_sc_hd__decap_12
XFILLER_0_1_113 VPWR VGND VPWR VGND sky130_ef_sc_hd__decap_12
X_272_ genblk1\[15\].csa.sc genblk1\[15\].csa.y VGND VGND VPWR VPWR _145_ sky130_fd_sc_hd__xor2_1
X_341_ net43 net23 VGND VGND VPWR VPWR _186_ sky130_fd_sc_hd__nand2_1
X_410_ net52 VGND VGND VPWR VPWR _094_ sky130_fd_sc_hd__inv_2
XTAP_TAPCELL_ROW_20_136 VGND VPWR sky130_fd_sc_hd__tapvpwrvgnd_1
XFILLER_0_24_88 VGND VGND VPWR VPWR sky130_fd_sc_hd__decap_8
XFILLER_0_24_66 VGND VGND VPWR VPWR sky130_fd_sc_hd__decap_3
XFILLER_0_24_11 VPWR VGND VPWR VGND sky130_ef_sc_hd__decap_12
XTAP_TAPCELL_ROW_17_1_126 VGND VPWR sky130_fd_sc_hd__tapvpwrvgnd_1
XFILLER_0_4_76 VGND VGND VPWR VPWR sky130_fd_sc_hd__decap_8
XFILLER_0_28_119 VPWR VGND VPWR VGND sky130_ef_sc_hd__decap_12
XPHY_EDGE_ROW_24_Left_56 VGND VGND VPWR VPWR sky130_fd_sc_hd__decap_3
X_324_ _174_ _175_ VGND VGND VPWR VPWR genblk1\[25\].csa.hsum2 sky130_fd_sc_hd__xnor2_1
X_255_ genblk1\[12\].csa.sc genblk1\[12\].csa.y VGND VGND VPWR VPWR _134_ sky130_fd_sc_hd__and2_1
XFILLER_0_19_77 VGND VGND VPWR VPWR sky130_fd_sc_hd__decap_6
XFILLER_0_19_66 VGND VGND VPWR VPWR sky130_fd_sc_hd__decap_4
XTAP_TAPCELL_ROW_16_1_125 VGND VPWR sky130_fd_sc_hd__tapvpwrvgnd_1
XFILLER_0_21_34 VGND VGND VPWR VPWR sky130_fd_sc_hd__fill_2
X_238_ net36 net32 _124_ _122_ VGND VGND VPWR VPWR _029_ sky130_fd_sc_hd__a31o_1
XFILLER_0_1_55 VGND VGND VPWR VPWR sky130_fd_sc_hd__fill_1
X_307_ genblk1\[22\].csa.sc genblk1\[22\].csa.y VGND VGND VPWR VPWR _166_ sky130_fd_sc_hd__xor2_1
XFILLER_0_30_169 VGND VGND VPWR VPWR sky130_fd_sc_hd__fill_1
XFILLER_0_15_188 VGND VGND VPWR VPWR sky130_fd_sc_hd__decap_4
XFILLER_0_15_122 VGND VGND VPWR VPWR sky130_fd_sc_hd__fill_2
XFILLER_0_32_88 VGND VGND VPWR VPWR sky130_fd_sc_hd__fill_1
XFILLER_0_32_44 VGND VGND VPWR VPWR sky130_fd_sc_hd__decap_3
XFILLER_0_32_22 VGND VGND VPWR VPWR sky130_fd_sc_hd__fill_1
XTAP_TAPCELL_ROW_29_161 VGND VPWR sky130_fd_sc_hd__tapvpwrvgnd_1
XFILLER_0_21_169 VGND VGND VPWR VPWR sky130_fd_sc_hd__decap_4
XFILLER_0_21_125 VGND VGND VPWR VPWR sky130_fd_sc_hd__decap_6
XFILLER_0_8_108 VGND VGND VPWR VPWR sky130_fd_sc_hd__decap_8
XFILLER_0_18_3 VGND VGND VPWR VPWR sky130_fd_sc_hd__fill_2
XTAP_TAPCELL_ROW_15_1_124 VGND VPWR sky130_fd_sc_hd__tapvpwrvgnd_1
XTAP_TAPCELL_ROW_26_153 VGND VPWR sky130_fd_sc_hd__tapvpwrvgnd_1
XFILLER_0_4_133 VGND VGND VPWR VPWR sky130_fd_sc_hd__decap_6
XFILLER_0_7_32 VGND VGND VPWR VPWR sky130_fd_sc_hd__decap_3
XFILLER_0_7_54 VGND VGND VPWR VPWR sky130_fd_sc_hd__fill_2
XTAP_TAPCELL_ROW_23_145 VGND VPWR sky130_fd_sc_hd__tapvpwrvgnd_1
XFILLER_0_13_68 VGND VGND VPWR VPWR sky130_fd_sc_hd__decap_3
XTAP_TAPCELL_ROW_14_1_123 VGND VPWR sky130_fd_sc_hd__tapvpwrvgnd_1
XFILLER_0_13_24 VGND VGND VPWR VPWR sky130_fd_sc_hd__decap_6
XFILLER_0_1_169 VPWR VGND VPWR VGND sky130_ef_sc_hd__decap_12
XFILLER_0_1_125 VPWR VGND VPWR VGND sky130_ef_sc_hd__decap_12
XTAP_TAPCELL_ROW_5_102 VGND VPWR sky130_fd_sc_hd__tapvpwrvgnd_1
X_271_ net38 net8 VGND VGND VPWR VPWR _144_ sky130_fd_sc_hd__nand2_1
X_340_ genblk1\[29\].csa.sc genblk1\[29\].csa.y VGND VGND VPWR VPWR _185_ sky130_fd_sc_hd__and2_1
XFILLER_0_24_23 VGND VGND VPWR VPWR sky130_fd_sc_hd__decap_4
X_469_ clknet_3_7__leaf_clk _019_ _089_ VGND VGND VPWR VPWR genblk1\[27\].csa.sc sky130_fd_sc_hd__dfrtp_1
XTAP_TAPCELL_ROW_13_1_122 VGND VPWR sky130_fd_sc_hd__tapvpwrvgnd_1
X_254_ _132_ _133_ VGND VGND VPWR VPWR genblk1\[11\].csa.hsum2 sky130_fd_sc_hd__xnor2_1
X_323_ net41 net19 _175_ _173_ VGND VGND VPWR VPWR _017_ sky130_fd_sc_hd__a31o_1
XTAP_TAPCELL_ROW_0_84 VGND VPWR sky130_fd_sc_hd__tapvpwrvgnd_1
XFILLER_0_24_145 VGND VGND VPWR VPWR sky130_fd_sc_hd__fill_1
XFILLER_0_24_101 VPWR VGND VPWR VGND sky130_ef_sc_hd__decap_12
XFILLER_0_21_68 VGND VGND VPWR VPWR sky130_fd_sc_hd__decap_4
X_306_ net40 net16 VGND VGND VPWR VPWR _165_ sky130_fd_sc_hd__nand2_1
X_237_ genblk1\[8\].csa.sc genblk1\[8\].csa.y VGND VGND VPWR VPWR _124_ sky130_fd_sc_hd__xor2_1
XTAP_TAPCELL_ROW_12_1_121 VGND VPWR sky130_fd_sc_hd__tapvpwrvgnd_1
XTAP_TAPCELL_ROW_29_162 VGND VPWR sky130_fd_sc_hd__tapvpwrvgnd_1
XPHY_EDGE_ROW_18_1_Left_50 VGND VGND VPWR VPWR sky130_fd_sc_hd__decap_3
XFILLER_0_12_148 VGND VGND VPWR VPWR sky130_fd_sc_hd__decap_3
XTAP_TAPCELL_ROW_26_154 VGND VPWR sky130_fd_sc_hd__tapvpwrvgnd_1
XPHY_EDGE_ROW_1_Right_1 VGND VGND VPWR VPWR sky130_fd_sc_hd__decap_3
XPHY_EDGE_ROW_28_Right_19 VGND VGND VPWR VPWR sky130_fd_sc_hd__decap_3
XTAP_TAPCELL_ROW_11_1_120 VGND VPWR sky130_fd_sc_hd__tapvpwrvgnd_1
XFILLER_0_30_3 VGND VGND VPWR VPWR sky130_fd_sc_hd__decap_4
XTAP_TAPCELL_ROW_8_111 VGND VPWR sky130_fd_sc_hd__tapvpwrvgnd_1
XFILLER_0_1_137 VPWR VGND VPWR VGND sky130_ef_sc_hd__decap_12
XFILLER_0_0_181 VGND VGND VPWR VPWR sky130_fd_sc_hd__decap_8
XTAP_TAPCELL_ROW_5_103 VGND VPWR sky130_fd_sc_hd__tapvpwrvgnd_1
X_270_ genblk1\[15\].csa.sc genblk1\[15\].csa.y VGND VGND VPWR VPWR _143_ sky130_fd_sc_hd__and2_1
XFILLER_0_24_46 VPWR VGND VPWR VGND sky130_ef_sc_hd__decap_12
XPHY_EDGE_ROW_17_2_Left_73 VGND VGND VPWR VPWR sky130_fd_sc_hd__decap_3
X_399_ net49 VGND VGND VPWR VPWR _083_ sky130_fd_sc_hd__inv_2
X_468_ clknet_3_5__leaf_clk genblk1\[26\].csa.hsum2 _088_ VGND VGND VPWR VPWR genblk1\[25\].csa.y
+ sky130_fd_sc_hd__dfrtp_1
X_322_ genblk1\[25\].csa.sc genblk1\[25\].csa.y VGND VGND VPWR VPWR _175_ sky130_fd_sc_hd__xor2_1
Xclkbuf_3_7__f_clk clknet_0_clk VGND VGND VPWR VPWR clknet_3_7__leaf_clk sky130_fd_sc_hd__clkbuf_16
XFILLER_0_19_57 VGND VGND VPWR VPWR sky130_fd_sc_hd__fill_2
XTAP_TAPCELL_ROW_0_85 VGND VPWR sky130_fd_sc_hd__tapvpwrvgnd_1
X_253_ net40 net4 _133_ _131_ VGND VGND VPWR VPWR _002_ sky130_fd_sc_hd__a31o_1
Xfanout50 net53 VGND VGND VPWR VPWR net50 sky130_fd_sc_hd__buf_2
XFILLER_0_24_113 VGND VGND VPWR VPWR sky130_fd_sc_hd__decap_6
X_236_ net36 net32 VGND VGND VPWR VPWR _123_ sky130_fd_sc_hd__nand2_1
X_305_ genblk1\[22\].csa.sc genblk1\[22\].csa.y VGND VGND VPWR VPWR _164_ sky130_fd_sc_hd__and2_1
XFILLER_0_1_57 VPWR VGND VPWR VGND sky130_ef_sc_hd__decap_12
XFILLER_0_32_68 VGND VGND VPWR VPWR sky130_fd_sc_hd__decap_3
XFILLER_0_32_57 VGND VGND VPWR VPWR sky130_fd_sc_hd__fill_2
XTAP_TAPCELL_ROW_29_163 VGND VPWR sky130_fd_sc_hd__tapvpwrvgnd_1
X_219_ _111_ _112_ VGND VGND VPWR VPWR genblk1\[4\].csa.hsum2 sky130_fd_sc_hd__xnor2_1
XFILLER_0_16_25 VGND VGND VPWR VPWR sky130_fd_sc_hd__decap_3
XFILLER_0_27_57 VPWR VGND VPWR VGND sky130_ef_sc_hd__decap_12
Xclkbuf_0_clk clk VGND VGND VPWR VPWR clknet_0_clk sky130_fd_sc_hd__clkbuf_16
XFILLER_0_23_3 VGND VGND VPWR VPWR sky130_fd_sc_hd__fill_2
XFILLER_0_7_12 VPWR VGND VPWR VGND sky130_ef_sc_hd__decap_12
XFILLER_0_7_78 VPWR VGND VPWR VGND sky130_ef_sc_hd__decap_12
XFILLER_0_1_105 VGND VGND VPWR VPWR sky130_fd_sc_hd__decap_6
XTAP_TAPCELL_ROW_8_112 VGND VPWR sky130_fd_sc_hd__tapvpwrvgnd_1
XTAP_TAPCELL_ROW_3_96 VGND VPWR sky130_fd_sc_hd__tapvpwrvgnd_1
XFILLER_0_1_149 VPWR VGND VPWR VGND sky130_ef_sc_hd__decap_12
XTAP_TAPCELL_ROW_5_104 VGND VPWR sky130_fd_sc_hd__tapvpwrvgnd_1
XFILLER_0_24_58 VGND VGND VPWR VPWR sky130_fd_sc_hd__decap_8
X_398_ net49 VGND VGND VPWR VPWR _082_ sky130_fd_sc_hd__inv_2
X_467_ clknet_3_5__leaf_clk _018_ _087_ VGND VGND VPWR VPWR genblk1\[26\].csa.sc sky130_fd_sc_hd__dfrtp_1
XFILLER_0_30_90 VGND VGND VPWR VPWR sky130_fd_sc_hd__decap_4
Xfanout51 net53 VGND VGND VPWR VPWR net51 sky130_fd_sc_hd__buf_4
Xfanout40 net44 VGND VGND VPWR VPWR net40 sky130_fd_sc_hd__buf_2
XTAP_TAPCELL_ROW_0_86 VGND VPWR sky130_fd_sc_hd__tapvpwrvgnd_1
X_252_ genblk1\[11\].csa.sc genblk1\[11\].csa.y VGND VGND VPWR VPWR _133_ sky130_fd_sc_hd__xor2_1
X_321_ net40 net19 VGND VGND VPWR VPWR _174_ sky130_fd_sc_hd__nand2_1
XFILLER_0_27_111 VGND VGND VPWR VPWR sky130_fd_sc_hd__fill_1
XFILLER_0_18_144 VGND VGND VPWR VPWR sky130_fd_sc_hd__decap_3
XFILLER_0_18_133 VGND VGND VPWR VPWR sky130_fd_sc_hd__decap_3
XFILLER_0_18_122 VGND VGND VPWR VPWR sky130_fd_sc_hd__decap_4
XFILLER_0_21_26 VGND VGND VPWR VPWR sky130_fd_sc_hd__decap_8
XFILLER_0_21_15 VGND VGND VPWR VPWR sky130_fd_sc_hd__decap_6
X_304_ _162_ _163_ VGND VGND VPWR VPWR genblk1\[21\].csa.hsum2 sky130_fd_sc_hd__xnor2_1
X_235_ genblk1\[8\].csa.sc genblk1\[8\].csa.y VGND VGND VPWR VPWR _122_ sky130_fd_sc_hd__and2_1
XFILLER_0_30_117 VGND VGND VPWR VPWR sky130_fd_sc_hd__decap_3
XFILLER_0_15_169 VGND VGND VPWR VPWR sky130_fd_sc_hd__decap_6
XFILLER_0_1_69 VPWR VGND VPWR VGND sky130_ef_sc_hd__decap_12
XFILLER_0_14_191 VGND VGND VPWR VPWR sky130_fd_sc_hd__fill_1
XFILLER_0_32_14 VGND VGND VPWR VPWR sky130_fd_sc_hd__fill_2
X_218_ net37 net28 _112_ _110_ VGND VGND VPWR VPWR _025_ sky130_fd_sc_hd__a31o_1
XPHY_EDGE_ROW_15_2_Right_29 VGND VGND VPWR VPWR sky130_fd_sc_hd__decap_3
XPHY_EDGE_ROW_10_1_Left_65 VGND VGND VPWR VPWR sky130_fd_sc_hd__decap_3
XFILLER_0_12_139 VGND VGND VPWR VPWR sky130_fd_sc_hd__decap_8
XFILLER_0_32_8 VGND VGND VPWR VPWR sky130_fd_sc_hd__decap_3
XFILLER_0_7_155 VGND VGND VPWR VPWR sky130_fd_sc_hd__fill_1
XFILLER_0_7_166 VGND VGND VPWR VPWR sky130_fd_sc_hd__fill_2
XFILLER_0_27_69 VPWR VGND VPWR VGND sky130_ef_sc_hd__decap_12
XFILLER_0_16_3 VGND VGND VPWR VPWR sky130_fd_sc_hd__decap_8
XFILLER_0_4_125 VGND VGND VPWR VPWR sky130_fd_sc_hd__fill_1
XFILLER_0_7_24 VGND VGND VPWR VPWR sky130_fd_sc_hd__decap_8
XFILLER_0_7_57 VGND VGND VPWR VPWR sky130_fd_sc_hd__fill_2
XTAP_TAPCELL_ROW_8_113 VGND VPWR sky130_fd_sc_hd__tapvpwrvgnd_1
XTAP_TAPCELL_ROW_3_97 VGND VPWR sky130_fd_sc_hd__tapvpwrvgnd_1
XFILLER_0_24_37 VGND VGND VPWR VPWR sky130_fd_sc_hd__fill_2
X_397_ net49 VGND VGND VPWR VPWR _081_ sky130_fd_sc_hd__inv_2
X_466_ clknet_3_5__leaf_clk genblk1\[25\].csa.hsum2 _086_ VGND VGND VPWR VPWR genblk1\[24\].csa.y
+ sky130_fd_sc_hd__dfrtp_1
XTAP_TAPCELL_ROW_10_1_176 VGND VPWR sky130_fd_sc_hd__tapvpwrvgnd_1
XFILLER_0_30_80 VGND VGND VPWR VPWR sky130_fd_sc_hd__decap_4
Xfanout52 net53 VGND VGND VPWR VPWR net52 sky130_fd_sc_hd__clkbuf_4
XFILLER_0_19_26 VGND VGND VPWR VPWR sky130_fd_sc_hd__fill_2
Xfanout41 net44 VGND VGND VPWR VPWR net41 sky130_fd_sc_hd__clkbuf_2
XTAP_TAPCELL_ROW_0_87 VGND VPWR sky130_fd_sc_hd__tapvpwrvgnd_1
X_251_ net39 net4 VGND VGND VPWR VPWR _132_ sky130_fd_sc_hd__nand2_1
X_320_ genblk1\[25\].csa.sc genblk1\[25\].csa.y VGND VGND VPWR VPWR _173_ sky130_fd_sc_hd__and2_1
X_449_ clknet_3_7__leaf_clk _008_ _069_ VGND VGND VPWR VPWR genblk1\[17\].csa.sc sky130_fd_sc_hd__dfrtp_1
XFILLER_0_27_178 VGND VGND VPWR VPWR sky130_fd_sc_hd__fill_1
XFILLER_0_18_167 VPWR VGND VPWR VGND sky130_ef_sc_hd__decap_12
X_234_ _120_ _121_ VGND VGND VPWR VPWR genblk1\[7\].csa.hsum2 sky130_fd_sc_hd__xnor2_1
X_303_ net40 net15 _163_ _161_ VGND VGND VPWR VPWR _013_ sky130_fd_sc_hd__a31o_1
XFILLER_0_1_15 VPWR VGND VPWR VGND sky130_ef_sc_hd__decap_12
XFILLER_0_32_26 VGND VGND VPWR VPWR sky130_fd_sc_hd__fill_2
X_217_ genblk1\[4\].csa.sc genblk1\[4\].csa.y VGND VGND VPWR VPWR _112_ sky130_fd_sc_hd__xor2_1
XFILLER_0_11_173 VGND VGND VPWR VPWR sky130_fd_sc_hd__fill_2
XPHY_EDGE_ROW_24_Right_15 VGND VGND VPWR VPWR sky130_fd_sc_hd__decap_3
XFILLER_0_17_70 VGND VGND VPWR VPWR sky130_fd_sc_hd__fill_1
XPHY_EDGE_ROW_5_Right_5 VGND VGND VPWR VPWR sky130_fd_sc_hd__decap_3
XPHY_EDGE_ROW_32_Left_64 VGND VGND VPWR VPWR sky130_fd_sc_hd__decap_3
XTAP_TAPCELL_ROW_3_98 VGND VPWR sky130_fd_sc_hd__tapvpwrvgnd_1
XFILLER_0_24_27 VGND VGND VPWR VPWR sky130_fd_sc_hd__fill_1
X_465_ clknet_3_5__leaf_clk _017_ _085_ VGND VGND VPWR VPWR genblk1\[25\].csa.sc sky130_fd_sc_hd__dfrtp_1
X_396_ net49 VGND VGND VPWR VPWR _080_ sky130_fd_sc_hd__inv_2
XFILLER_0_4_15 VPWR VGND VPWR VGND sky130_ef_sc_hd__decap_12
Xfanout42 net44 VGND VGND VPWR VPWR net42 sky130_fd_sc_hd__buf_2
XFILLER_0_19_16 VGND VGND VPWR VPWR sky130_fd_sc_hd__decap_3
Xfanout53 net1 VGND VGND VPWR VPWR net53 sky130_fd_sc_hd__clkbuf_2
X_250_ genblk1\[11\].csa.sc genblk1\[11\].csa.y VGND VGND VPWR VPWR _131_ sky130_fd_sc_hd__and2_1
XFILLER_0_10_29 VGND VGND VPWR VPWR sky130_fd_sc_hd__fill_2
X_448_ clknet_3_3__leaf_clk genblk1\[16\].csa.hsum2 _068_ VGND VGND VPWR VPWR genblk1\[15\].csa.y
+ sky130_fd_sc_hd__dfrtp_1
X_379_ net47 VGND VGND VPWR VPWR _063_ sky130_fd_sc_hd__inv_2
XTAP_TAPCELL_ROW_0_88 VGND VPWR sky130_fd_sc_hd__tapvpwrvgnd_1
XFILLER_0_18_179 VPWR VGND VPWR VGND sky130_ef_sc_hd__decap_12
XPHY_EDGE_ROW_3_Left_36 VGND VGND VPWR VPWR sky130_fd_sc_hd__decap_3
XFILLER_0_24_149 VGND VGND VPWR VPWR sky130_fd_sc_hd__decap_8
X_233_ net37 net31 _121_ _119_ VGND VGND VPWR VPWR _028_ sky130_fd_sc_hd__a31o_1
X_302_ genblk1\[21\].csa.sc genblk1\[21\].csa.y VGND VGND VPWR VPWR _163_ sky130_fd_sc_hd__xor2_1
XFILLER_0_1_27 VPWR VGND VPWR VGND sky130_ef_sc_hd__decap_12
XFILLER_0_15_138 VPWR VGND VPWR VGND sky130_ef_sc_hd__decap_12
XFILLER_0_32_38 VGND VGND VPWR VPWR sky130_fd_sc_hd__decap_3
XFILLER_0_14_160 VGND VGND VPWR VPWR sky130_fd_sc_hd__decap_8
X_216_ net37 net28 VGND VGND VPWR VPWR _111_ sky130_fd_sc_hd__nand2_1
XFILLER_0_25_9 VGND VGND VPWR VPWR sky130_fd_sc_hd__fill_1
XFILLER_0_22_93 VGND VGND VPWR VPWR sky130_fd_sc_hd__fill_1
XFILLER_0_20_141 VGND VGND VPWR VPWR sky130_fd_sc_hd__decap_8
XFILLER_0_7_113 VPWR VGND VPWR VGND sky130_ef_sc_hd__decap_12
XFILLER_0_4_105 VPWR VGND VPWR VGND sky130_ef_sc_hd__decap_12
XFILLER_0_30_7 VGND VGND VPWR VPWR sky130_fd_sc_hd__fill_1
XPHY_EDGE_ROW_14_2_Right_28 VGND VGND VPWR VPWR sky130_fd_sc_hd__decap_3
XFILLER_0_21_3 VPWR VGND VPWR VGND sky130_ef_sc_hd__decap_12
XFILLER_0_0_141 VPWR VGND VPWR VGND sky130_ef_sc_hd__decap_12
X_464_ clknet_3_5__leaf_clk genblk1\[24\].csa.hsum2 _084_ VGND VGND VPWR VPWR genblk1\[23\].csa.y
+ sky130_fd_sc_hd__dfrtp_1
Xclkbuf_3_2__f_clk clknet_0_clk VGND VGND VPWR VPWR clknet_3_2__leaf_clk sky130_fd_sc_hd__clkbuf_16
XFILLER_0_4_27 VGND VGND VPWR VPWR sky130_fd_sc_hd__fill_1
XFILLER_0_4_49 VGND VGND VPWR VPWR sky130_fd_sc_hd__decap_8
X_395_ net49 VGND VGND VPWR VPWR _079_ sky130_fd_sc_hd__inv_2
Xfanout43 net44 VGND VGND VPWR VPWR net43 sky130_fd_sc_hd__buf_2
X_447_ clknet_3_3__leaf_clk _007_ _067_ VGND VGND VPWR VPWR genblk1\[16\].csa.sc sky130_fd_sc_hd__dfrtp_1
XFILLER_0_27_169 VGND VGND VPWR VPWR sky130_fd_sc_hd__decap_6
XTAP_TAPCELL_ROW_0_89 VGND VPWR sky130_fd_sc_hd__tapvpwrvgnd_1
X_378_ net48 VGND VGND VPWR VPWR _062_ sky130_fd_sc_hd__inv_2
XFILLER_0_26_180 VPWR VGND VPWR VGND sky130_ef_sc_hd__decap_12
XFILLER_0_17_191 VGND VGND VPWR VPWR sky130_fd_sc_hd__fill_1
X_232_ genblk1\[7\].csa.sc genblk1\[7\].csa.y VGND VGND VPWR VPWR _121_ sky130_fd_sc_hd__xor2_1
X_301_ net40 net15 VGND VGND VPWR VPWR _162_ sky130_fd_sc_hd__nand2_1
XFILLER_0_1_39 VPWR VGND VPWR VGND sky130_ef_sc_hd__decap_12
XFILLER_0_16_29 VPWR VGND VPWR VGND sky130_ef_sc_hd__decap_12
XFILLER_0_16_18 VGND VGND VPWR VPWR sky130_fd_sc_hd__decap_4
X_215_ genblk1\[4\].csa.sc genblk1\[4\].csa.y VGND VGND VPWR VPWR _110_ sky130_fd_sc_hd__and2_1
XFILLER_0_22_83 VGND VGND VPWR VPWR sky130_fd_sc_hd__fill_1
XFILLER_0_7_125 VPWR VGND VPWR VGND sky130_ef_sc_hd__decap_12
XFILLER_0_7_169 VGND VGND VPWR VPWR sky130_fd_sc_hd__fill_2
XFILLER_0_11_164 VGND VGND VPWR VPWR sky130_fd_sc_hd__fill_2
XFILLER_0_4_117 VGND VGND VPWR VPWR sky130_fd_sc_hd__decap_8
XFILLER_0_4_139 VGND VGND VPWR VPWR sky130_fd_sc_hd__fill_1
XFILLER_0_6_180 VGND VGND VPWR VPWR sky130_fd_sc_hd__fill_2
XTAP_TAPCELL_ROW_22_140 VGND VPWR sky130_fd_sc_hd__tapvpwrvgnd_1
XFILLER_0_14_3 VGND VGND VPWR VPWR sky130_fd_sc_hd__decap_4
XFILLER_0_24_29 VGND VGND VPWR VPWR sky130_fd_sc_hd__decap_8
X_394_ net49 VGND VGND VPWR VPWR _078_ sky130_fd_sc_hd__inv_2
X_463_ clknet_3_5__leaf_clk _016_ _083_ VGND VGND VPWR VPWR genblk1\[24\].csa.sc sky130_fd_sc_hd__dfrtp_1
Xfanout44 net34 VGND VGND VPWR VPWR net44 sky130_fd_sc_hd__clkbuf_2
X_446_ clknet_3_6__leaf_clk genblk1\[15\].csa.hsum2 _066_ VGND VGND VPWR VPWR genblk1\[14\].csa.y
+ sky130_fd_sc_hd__dfrtp_1
X_377_ net47 VGND VGND VPWR VPWR _061_ sky130_fd_sc_hd__inv_2
XFILLER_0_19_29 VPWR VGND VPWR VGND sky130_ef_sc_hd__decap_12
XFILLER_0_3_3 VPWR VGND VPWR VGND sky130_ef_sc_hd__decap_12
XFILLER_0_18_148 VPWR VGND VPWR VGND sky130_ef_sc_hd__decap_12
XFILLER_0_18_126 VGND VGND VPWR VPWR sky130_fd_sc_hd__fill_1
XFILLER_0_32_184 VGND VGND VPWR VPWR sky130_fd_sc_hd__fill_1
X_231_ net37 net31 VGND VGND VPWR VPWR _120_ sky130_fd_sc_hd__nand2_1
X_300_ genblk1\[21\].csa.sc genblk1\[21\].csa.y VGND VGND VPWR VPWR _161_ sky130_fd_sc_hd__and2_1
X_429_ clknet_3_0__leaf_clk _028_ _049_ VGND VGND VPWR VPWR genblk1\[7\].csa.sc sky130_fd_sc_hd__dfrtp_1
Xinput1 rst VGND VGND VPWR VPWR net1 sky130_fd_sc_hd__clkbuf_1
X_214_ _108_ _109_ VGND VGND VPWR VPWR genblk1\[3\].csa.hsum2 sky130_fd_sc_hd__xnor2_1
XPHY_EDGE_ROW_14_1_Left_46 VGND VGND VPWR VPWR sky130_fd_sc_hd__decap_3
XFILLER_0_7_137 VPWR VGND VPWR VGND sky130_ef_sc_hd__decap_12
XFILLER_0_11_176 VGND VGND VPWR VPWR sky130_fd_sc_hd__decap_4
XFILLER_0_17_62 VGND VGND VPWR VPWR sky130_fd_sc_hd__decap_8
XTAP_TAPCELL_ROW_22_141 VGND VPWR sky130_fd_sc_hd__tapvpwrvgnd_1
XFILLER_0_3_140 VGND VGND VPWR VPWR sky130_fd_sc_hd__decap_3
XPHY_EDGE_ROW_20_Right_11 VGND VGND VPWR VPWR sky130_fd_sc_hd__decap_3
XPHY_EDGE_ROW_9_Right_9 VGND VGND VPWR VPWR sky130_fd_sc_hd__decap_3
XFILLER_0_8_82 VGND VGND VPWR VPWR sky130_fd_sc_hd__fill_2
XPHY_EDGE_ROW_13_2_Right_27 VGND VGND VPWR VPWR sky130_fd_sc_hd__decap_3