*SPEF "ieee 1481-1999"
*DESIGN "tt_um_factory_test"
*DATE "13:32:19 Thursday September 19, 2024"
*VENDOR "The OpenROAD Project"
*PROGRAM "OpenROAD"
*VERSION "b16bda7e82721d10566ff7e2b68f1ff0be9f9e38"
*DESIGN_FLOW "NAME_SCOPE LOCAL" "PIN_CAP NONE"
*DIVIDER /
*DELIMITER :
*BUS_DELIMITER []
*T_UNIT 1 NS
*C_UNIT 1 PF
*R_UNIT 1 OHM
*L_UNIT 1 HENRY

*NAME_MAP
*3 clk
*4 ena
*5 rst_n
*6 ui_in[0]
*7 ui_in[1]
*8 ui_in[2]
*9 ui_in[3]
*10 ui_in[4]
*11 ui_in[5]
*12 ui_in[6]
*13 ui_in[7]
*14 uio_in[0]
*15 uio_in[1]
*16 uio_in[2]
*17 uio_in[3]
*18 uio_in[4]
*19 uio_in[5]
*20 uio_in[6]
*21 uio_in[7]
*22 uio_oe[0]
*23 uio_oe[1]
*24 uio_oe[2]
*25 uio_oe[3]
*26 uio_oe[4]
*27 uio_oe[5]
*28 uio_oe[6]
*29 uio_oe[7]
*30 uio_out[0]
*31 uio_out[1]
*32 uio_out[2]
*33 uio_out[3]
*34 uio_out[4]
*35 uio_out[5]
*36 uio_out[6]
*37 uio_out[7]
*38 uo_out[0]
*39 uo_out[1]
*40 uo_out[2]
*41 uo_out[3]
*42 uo_out[4]
*43 uo_out[5]
*44 uo_out[6]
*45 uo_out[7]
*46 clknet_0_clk
*47 clknet_1_0__leaf_clk
*48 clknet_1_1__leaf_clk
*49 net1
*50 net10
*51 net11
*52 net12
*53 net13
*54 net14
*55 net15
*56 net16
*57 net17
*58 net18
*59 net19
*60 net2
*61 net20
*62 net21
*63 net22
*64 net23
*65 net24
*66 net25
*67 net3
*68 net4
*69 net5
*70 net6
*71 net7
*72 net8
*73 net9
*74 q
*75 r_in
*76 r_out
*77 FILLER_0_0_109
*78 FILLER_0_0_113
*79 FILLER_0_0_125
*80 FILLER_0_0_137
*81 FILLER_0_0_141
*82 FILLER_0_0_15
*83 FILLER_0_0_153
*84 FILLER_0_0_165
*85 FILLER_0_0_169
*86 FILLER_0_0_181
*87 FILLER_0_0_193
*88 FILLER_0_0_197
*89 FILLER_0_0_209
*90 FILLER_0_0_221
*91 FILLER_0_0_225
*92 FILLER_0_0_237
*93 FILLER_0_0_249
*94 FILLER_0_0_253
*95 FILLER_0_0_265
*96 FILLER_0_0_27
*97 FILLER_0_0_277
*98 FILLER_0_0_281
*99 FILLER_0_0_29
*100 FILLER_0_0_293
*101 FILLER_0_0_3
*102 FILLER_0_0_305
*103 FILLER_0_0_309
*104 FILLER_0_0_321
*105 FILLER_0_0_333
*106 FILLER_0_0_41
*107 FILLER_0_0_53
*108 FILLER_0_0_57
*109 FILLER_0_0_69
*110 FILLER_0_0_81
*111 FILLER_0_0_85
*112 FILLER_0_0_97
*113 FILLER_0_10_109
*114 FILLER_0_10_121
*115 FILLER_0_10_133
*116 FILLER_0_10_139
*117 FILLER_0_10_141
*118 FILLER_0_10_15
*119 FILLER_0_10_153
*120 FILLER_0_10_165
*121 FILLER_0_10_177
*122 FILLER_0_10_189
*123 FILLER_0_10_195
*124 FILLER_0_10_197
*125 FILLER_0_10_209
*126 FILLER_0_10_221
*127 FILLER_0_10_233
*128 FILLER_0_10_245
*129 FILLER_0_10_251
*130 FILLER_0_10_253
*131 FILLER_0_10_265
*132 FILLER_0_10_27
*133 FILLER_0_10_277
*134 FILLER_0_10_289
*135 FILLER_0_10_29
*136 FILLER_0_10_3
*137 FILLER_0_10_301
*138 FILLER_0_10_307
*139 FILLER_0_10_309
*140 FILLER_0_10_321
*141 FILLER_0_10_333
*142 FILLER_0_10_41
*143 FILLER_0_10_53
*144 FILLER_0_10_65
*145 FILLER_0_10_77
*146 FILLER_0_10_83
*147 FILLER_0_10_85
*148 FILLER_0_10_97
*149 FILLER_0_11_105
*150 FILLER_0_11_111
*151 FILLER_0_11_113
*152 FILLER_0_11_125
*153 FILLER_0_11_137
*154 FILLER_0_11_149
*155 FILLER_0_11_15
*156 FILLER_0_11_161
*157 FILLER_0_11_167
*158 FILLER_0_11_169
*159 FILLER_0_11_181
*160 FILLER_0_11_193
*161 FILLER_0_11_205
*162 FILLER_0_11_217
*163 FILLER_0_11_223
*164 FILLER_0_11_225
*165 FILLER_0_11_237
*166 FILLER_0_11_249
*167 FILLER_0_11_261
*168 FILLER_0_11_27
*169 FILLER_0_11_273
*170 FILLER_0_11_279
*171 FILLER_0_11_281
*172 FILLER_0_11_293
*173 FILLER_0_11_3
*174 FILLER_0_11_305
*175 FILLER_0_11_317
*176 FILLER_0_11_329
*177 FILLER_0_11_39
*178 FILLER_0_11_51
*179 FILLER_0_11_55
*180 FILLER_0_11_57
*181 FILLER_0_11_69
*182 FILLER_0_11_81
*183 FILLER_0_11_93
*184 FILLER_0_12_109
*185 FILLER_0_12_121
*186 FILLER_0_12_133
*187 FILLER_0_12_139
*188 FILLER_0_12_141
*189 FILLER_0_12_15
*190 FILLER_0_12_153
*191 FILLER_0_12_165
*192 FILLER_0_12_177
*193 FILLER_0_12_189
*194 FILLER_0_12_195
*195 FILLER_0_12_197
*196 FILLER_0_12_209
*197 FILLER_0_12_221
*198 FILLER_0_12_233
*199 FILLER_0_12_245
*200 FILLER_0_12_251
*201 FILLER_0_12_253
*202 FILLER_0_12_265
*203 FILLER_0_12_27
*204 FILLER_0_12_277
*205 FILLER_0_12_289
*206 FILLER_0_12_29
*207 FILLER_0_12_3
*208 FILLER_0_12_301
*209 FILLER_0_12_307
*210 FILLER_0_12_309
*211 FILLER_0_12_321
*212 FILLER_0_12_333
*213 FILLER_0_12_41
*214 FILLER_0_12_53
*215 FILLER_0_12_65
*216 FILLER_0_12_77
*217 FILLER_0_12_83
*218 FILLER_0_12_85
*219 FILLER_0_12_97
*220 FILLER_0_13_105
*221 FILLER_0_13_111
*222 FILLER_0_13_113
*223 FILLER_0_13_125
*224 FILLER_0_13_137
*225 FILLER_0_13_149
*226 FILLER_0_13_15
*227 FILLER_0_13_161
*228 FILLER_0_13_167
*229 FILLER_0_13_169
*230 FILLER_0_13_181
*231 FILLER_0_13_193
*232 FILLER_0_13_205
*233 FILLER_0_13_217
*234 FILLER_0_13_223
*235 FILLER_0_13_225
*236 FILLER_0_13_237
*237 FILLER_0_13_249
*238 FILLER_0_13_261
*239 FILLER_0_13_27
*240 FILLER_0_13_273
*241 FILLER_0_13_279
*242 FILLER_0_13_281
*243 FILLER_0_13_293
*244 FILLER_0_13_3
*245 FILLER_0_13_305
*246 FILLER_0_13_317
*247 FILLER_0_13_329
*248 FILLER_0_13_39
*249 FILLER_0_13_51
*250 FILLER_0_13_55
*251 FILLER_0_13_57
*252 FILLER_0_13_69
*253 FILLER_0_13_81
*254 FILLER_0_13_93
*255 FILLER_0_14_109
*256 FILLER_0_14_121
*257 FILLER_0_14_133
*258 FILLER_0_14_139
*259 FILLER_0_14_141
*260 FILLER_0_14_15
*261 FILLER_0_14_153
*262 FILLER_0_14_165
*263 FILLER_0_14_177
*264 FILLER_0_14_189
*265 FILLER_0_14_195
*266 FILLER_0_14_197
*267 FILLER_0_14_209
*268 FILLER_0_14_221
*269 FILLER_0_14_233
*270 FILLER_0_14_245
*271 FILLER_0_14_251
*272 FILLER_0_14_253
*273 FILLER_0_14_265
*274 FILLER_0_14_27
*275 FILLER_0_14_277
*276 FILLER_0_14_289
*277 FILLER_0_14_29
*278 FILLER_0_14_3
*279 FILLER_0_14_301
*280 FILLER_0_14_307
*281 FILLER_0_14_309
*282 FILLER_0_14_321
*283 FILLER_0_14_333
*284 FILLER_0_14_41
*285 FILLER_0_14_53
*286 FILLER_0_14_65
*287 FILLER_0_14_77
*288 FILLER_0_14_83
*289 FILLER_0_14_85
*290 FILLER_0_14_97
*291 FILLER_0_15_105
*292 FILLER_0_15_111
*293 FILLER_0_15_113
*294 FILLER_0_15_125
*295 FILLER_0_15_137
*296 FILLER_0_15_149
*297 FILLER_0_15_15
*298 FILLER_0_15_161
*299 FILLER_0_15_167
*300 FILLER_0_15_169
*301 FILLER_0_15_181
*302 FILLER_0_15_193
*303 FILLER_0_15_205
*304 FILLER_0_15_217
*305 FILLER_0_15_223
*306 FILLER_0_15_225
*307 FILLER_0_15_237
*308 FILLER_0_15_249
*309 FILLER_0_15_261
*310 FILLER_0_15_27
*311 FILLER_0_15_273
*312 FILLER_0_15_279
*313 FILLER_0_15_281
*314 FILLER_0_15_293
*315 FILLER_0_15_3
*316 FILLER_0_15_305
*317 FILLER_0_15_317
*318 FILLER_0_15_329
*319 FILLER_0_15_39
*320 FILLER_0_15_51
*321 FILLER_0_15_55
*322 FILLER_0_15_57
*323 FILLER_0_15_69
*324 FILLER_0_15_81
*325 FILLER_0_15_93
*326 FILLER_0_16_109
*327 FILLER_0_16_121
*328 FILLER_0_16_133
*329 FILLER_0_16_139
*330 FILLER_0_16_141
*331 FILLER_0_16_15
*332 FILLER_0_16_153
*333 FILLER_0_16_165
*334 FILLER_0_16_177
*335 FILLER_0_16_189
*336 FILLER_0_16_195
*337 FILLER_0_16_197
*338 FILLER_0_16_209
*339 FILLER_0_16_221
*340 FILLER_0_16_233
*341 FILLER_0_16_245
*342 FILLER_0_16_251
*343 FILLER_0_16_253
*344 FILLER_0_16_265
*345 FILLER_0_16_27
*346 FILLER_0_16_277
*347 FILLER_0_16_289
*348 FILLER_0_16_29
*349 FILLER_0_16_3
*350 FILLER_0_16_301
*351 FILLER_0_16_307
*352 FILLER_0_16_309
*353 FILLER_0_16_321
*354 FILLER_0_16_333
*355 FILLER_0_16_41
*356 FILLER_0_16_53
*357 FILLER_0_16_65
*358 FILLER_0_16_77
*359 FILLER_0_16_83
*360 FILLER_0_16_85
*361 FILLER_0_16_97
*362 FILLER_0_17_105
*363 FILLER_0_17_111
*364 FILLER_0_17_113
*365 FILLER_0_17_125
*366 FILLER_0_17_137
*367 FILLER_0_17_149
*368 FILLER_0_17_15
*369 FILLER_0_17_161
*370 FILLER_0_17_167
*371 FILLER_0_17_169
*372 FILLER_0_17_181
*373 FILLER_0_17_193
*374 FILLER_0_17_205
*375 FILLER_0_17_217
*376 FILLER_0_17_223
*377 FILLER_0_17_225
*378 FILLER_0_17_237
*379 FILLER_0_17_249
*380 FILLER_0_17_261
*381 FILLER_0_17_27
*382 FILLER_0_17_273
*383 FILLER_0_17_279
*384 FILLER_0_17_281
*385 FILLER_0_17_293
*386 FILLER_0_17_3
*387 FILLER_0_17_305
*388 FILLER_0_17_317
*389 FILLER_0_17_329
*390 FILLER_0_17_39
*391 FILLER_0_17_51
*392 FILLER_0_17_55
*393 FILLER_0_17_57
*394 FILLER_0_17_69
*395 FILLER_0_17_81
*396 FILLER_0_17_93
*397 FILLER_0_18_109
*398 FILLER_0_18_121
*399 FILLER_0_18_133
*400 FILLER_0_18_139
*401 FILLER_0_18_141
*402 FILLER_0_18_15
*403 FILLER_0_18_153
*404 FILLER_0_18_165
*405 FILLER_0_18_177
*406 FILLER_0_18_189
*407 FILLER_0_18_195
*408 FILLER_0_18_197
*409 FILLER_0_18_209
*410 FILLER_0_18_221
*411 FILLER_0_18_233
*412 FILLER_0_18_245
*413 FILLER_0_18_251
*414 FILLER_0_18_253
*415 FILLER_0_18_265
*416 FILLER_0_18_27
*417 FILLER_0_18_277
*418 FILLER_0_18_289
*419 FILLER_0_18_29
*420 FILLER_0_18_3
*421 FILLER_0_18_301
*422 FILLER_0_18_307
*423 FILLER_0_18_309
*424 FILLER_0_18_321
*425 FILLER_0_18_333
*426 FILLER_0_18_41
*427 FILLER_0_18_53
*428 FILLER_0_18_65
*429 FILLER_0_18_77
*430 FILLER_0_18_83
*431 FILLER_0_18_85
*432 FILLER_0_18_97
*433 FILLER_0_19_105
*434 FILLER_0_19_111
*435 FILLER_0_19_113
*436 FILLER_0_19_125
*437 FILLER_0_19_137
*438 FILLER_0_19_149
*439 FILLER_0_19_15
*440 FILLER_0_19_161
*441 FILLER_0_19_167
*442 FILLER_0_19_169
*443 FILLER_0_19_181
*444 FILLER_0_19_193
*445 FILLER_0_19_205
*446 FILLER_0_19_217
*447 FILLER_0_19_223
*448 FILLER_0_19_225
*449 FILLER_0_19_237
*450 FILLER_0_19_249
*451 FILLER_0_19_261
*452 FILLER_0_19_27
*453 FILLER_0_19_273
*454 FILLER_0_19_279
*455 FILLER_0_19_281
*456 FILLER_0_19_293
*457 FILLER_0_19_3
*458 FILLER_0_19_305
*459 FILLER_0_19_317
*460 FILLER_0_19_329
*461 FILLER_0_19_39
*462 FILLER_0_19_51
*463 FILLER_0_19_55
*464 FILLER_0_19_57
*465 FILLER_0_19_69
*466 FILLER_0_19_81
*467 FILLER_0_19_93
*468 FILLER_0_1_105
*469 FILLER_0_1_111
*470 FILLER_0_1_113
*471 FILLER_0_1_125
*472 FILLER_0_1_137
*473 FILLER_0_1_149
*474 FILLER_0_1_15
*475 FILLER_0_1_161
*476 FILLER_0_1_167
*477 FILLER_0_1_169
*478 FILLER_0_1_181
*479 FILLER_0_1_193
*480 FILLER_0_1_205
*481 FILLER_0_1_217
*482 FILLER_0_1_223
*483 FILLER_0_1_225
*484 FILLER_0_1_237
*485 FILLER_0_1_249
*486 FILLER_0_1_261
*487 FILLER_0_1_27
*488 FILLER_0_1_273
*489 FILLER_0_1_279
*490 FILLER_0_1_281
*491 FILLER_0_1_293
*492 FILLER_0_1_3
*493 FILLER_0_1_305
*494 FILLER_0_1_317
*495 FILLER_0_1_329
*496 FILLER_0_1_39
*497 FILLER_0_1_51
*498 FILLER_0_1_55
*499 FILLER_0_1_57
*500 FILLER_0_1_69
*501 FILLER_0_1_81
*502 FILLER_0_1_93
*503 FILLER_0_20_109
*504 FILLER_0_20_121
*505 FILLER_0_20_133
*506 FILLER_0_20_139
*507 FILLER_0_20_141
*508 FILLER_0_20_15
*509 FILLER_0_20_153
*510 FILLER_0_20_165
*511 FILLER_0_20_177
*512 FILLER_0_20_189
*513 FILLER_0_20_195
*514 FILLER_0_20_197
*515 FILLER_0_20_209
*516 FILLER_0_20_221
*517 FILLER_0_20_233
*518 FILLER_0_20_245
*519 FILLER_0_20_251
*520 FILLER_0_20_253
*521 FILLER_0_20_265
*522 FILLER_0_20_27
*523 FILLER_0_20_277
*524 FILLER_0_20_289
*525 FILLER_0_20_29
*526 FILLER_0_20_3
*527 FILLER_0_20_301
*528 FILLER_0_20_307
*529 FILLER_0_20_309
*530 FILLER_0_20_321
*531 FILLER_0_20_333
*532 FILLER_0_20_41
*533 FILLER_0_20_53
*534 FILLER_0_20_65
*535 FILLER_0_20_77
*536 FILLER_0_20_83
*537 FILLER_0_20_85
*538 FILLER_0_20_97
*539 FILLER_0_21_105
*540 FILLER_0_21_111
*541 FILLER_0_21_113
*542 FILLER_0_21_125
*543 FILLER_0_21_137
*544 FILLER_0_21_149
*545 FILLER_0_21_15
*546 FILLER_0_21_161
*547 FILLER_0_21_167
*548 FILLER_0_21_169
*549 FILLER_0_21_181
*550 FILLER_0_21_193
*551 FILLER_0_21_205
*552 FILLER_0_21_217
*553 FILLER_0_21_223
*554 FILLER_0_21_225
*555 FILLER_0_21_237
*556 FILLER_0_21_249
*557 FILLER_0_21_261
*558 FILLER_0_21_27
*559 FILLER_0_21_273
*560 FILLER_0_21_279
*561 FILLER_0_21_281
*562 FILLER_0_21_293
*563 FILLER_0_21_3
*564 FILLER_0_21_305
*565 FILLER_0_21_317
*566 FILLER_0_21_329
*567 FILLER_0_21_39
*568 FILLER_0_21_51
*569 FILLER_0_21_55
*570 FILLER_0_21_57
*571 FILLER_0_21_69
*572 FILLER_0_21_81
*573 FILLER_0_21_93
*574 FILLER_0_22_109
*575 FILLER_0_22_121
*576 FILLER_0_22_133
*577 FILLER_0_22_139
*578 FILLER_0_22_141
*579 FILLER_0_22_15
*580 FILLER_0_22_153
*581 FILLER_0_22_165
*582 FILLER_0_22_177
*583 FILLER_0_22_189
*584 FILLER_0_22_195
*585 FILLER_0_22_197
*586 FILLER_0_22_209
*587 FILLER_0_22_221
*588 FILLER_0_22_233
*589 FILLER_0_22_245
*590 FILLER_0_22_251
*591 FILLER_0_22_253
*592 FILLER_0_22_265
*593 FILLER_0_22_27
*594 FILLER_0_22_277
*595 FILLER_0_22_289
*596 FILLER_0_22_29
*597 FILLER_0_22_3
*598 FILLER_0_22_301
*599 FILLER_0_22_307
*600 FILLER_0_22_309
*601 FILLER_0_22_321
*602 FILLER_0_22_333
*603 FILLER_0_22_41
*604 FILLER_0_22_53
*605 FILLER_0_22_65
*606 FILLER_0_22_77
*607 FILLER_0_22_83
*608 FILLER_0_22_85
*609 FILLER_0_22_97
*610 FILLER_0_23_105
*611 FILLER_0_23_111
*612 FILLER_0_23_113
*613 FILLER_0_23_125
*614 FILLER_0_23_137
*615 FILLER_0_23_149
*616 FILLER_0_23_15
*617 FILLER_0_23_161
*618 FILLER_0_23_167
*619 FILLER_0_23_169
*620 FILLER_0_23_181
*621 FILLER_0_23_193
*622 FILLER_0_23_205
*623 FILLER_0_23_217
*624 FILLER_0_23_223
*625 FILLER_0_23_225
*626 FILLER_0_23_237
*627 FILLER_0_23_249
*628 FILLER_0_23_261
*629 FILLER_0_23_27
*630 FILLER_0_23_273
*631 FILLER_0_23_279
*632 FILLER_0_23_281
*633 FILLER_0_23_293
*634 FILLER_0_23_3
*635 FILLER_0_23_305
*636 FILLER_0_23_317
*637 FILLER_0_23_329
*638 FILLER_0_23_39
*639 FILLER_0_23_51
*640 FILLER_0_23_55
*641 FILLER_0_23_57
*642 FILLER_0_23_69
*643 FILLER_0_23_81
*644 FILLER_0_23_93
*645 FILLER_0_24_109
*646 FILLER_0_24_121
*647 FILLER_0_24_133
*648 FILLER_0_24_139
*649 FILLER_0_24_141
*650 FILLER_0_24_15
*651 FILLER_0_24_153
*652 FILLER_0_24_165
*653 FILLER_0_24_177
*654 FILLER_0_24_189
*655 FILLER_0_24_195
*656 FILLER_0_24_197
*657 FILLER_0_24_209
*658 FILLER_0_24_221
*659 FILLER_0_24_233
*660 FILLER_0_24_245
*661 FILLER_0_24_251
*662 FILLER_0_24_253
*663 FILLER_0_24_265
*664 FILLER_0_24_27
*665 FILLER_0_24_277
*666 FILLER_0_24_289
*667 FILLER_0_24_29
*668 FILLER_0_24_3
*669 FILLER_0_24_301
*670 FILLER_0_24_307
*671 FILLER_0_24_309
*672 FILLER_0_24_321
*673 FILLER_0_24_333
*674 FILLER_0_24_41
*675 FILLER_0_24_53
*676 FILLER_0_24_65
*677 FILLER_0_24_77
*678 FILLER_0_24_83
*679 FILLER_0_24_85
*680 FILLER_0_24_97
*681 FILLER_0_25_105
*682 FILLER_0_25_111
*683 FILLER_0_25_113
*684 FILLER_0_25_125
*685 FILLER_0_25_137
*686 FILLER_0_25_149
*687 FILLER_0_25_15
*688 FILLER_0_25_161
*689 FILLER_0_25_167
*690 FILLER_0_25_169
*691 FILLER_0_25_181
*692 FILLER_0_25_193
*693 FILLER_0_25_205
*694 FILLER_0_25_217
*695 FILLER_0_25_223
*696 FILLER_0_25_225
*697 FILLER_0_25_237
*698 FILLER_0_25_249
*699 FILLER_0_25_261
*700 FILLER_0_25_27
*701 FILLER_0_25_273
*702 FILLER_0_25_279
*703 FILLER_0_25_281
*704 FILLER_0_25_293
*705 FILLER_0_25_3
*706 FILLER_0_25_305
*707 FILLER_0_25_317
*708 FILLER_0_25_329
*709 FILLER_0_25_39
*710 FILLER_0_25_51
*711 FILLER_0_25_55
*712 FILLER_0_25_57
*713 FILLER_0_25_69
*714 FILLER_0_25_81
*715 FILLER_0_25_93
*716 FILLER_0_26_109
*717 FILLER_0_26_121
*718 FILLER_0_26_133
*719 FILLER_0_26_139
*720 FILLER_0_26_141
*721 FILLER_0_26_15
*722 FILLER_0_26_153
*723 FILLER_0_26_165
*724 FILLER_0_26_177
*725 FILLER_0_26_189
*726 FILLER_0_26_195
*727 FILLER_0_26_197
*728 FILLER_0_26_209
*729 FILLER_0_26_221
*730 FILLER_0_26_233
*731 FILLER_0_26_245
*732 FILLER_0_26_251
*733 FILLER_0_26_253
*734 FILLER_0_26_265
*735 FILLER_0_26_27
*736 FILLER_0_26_277
*737 FILLER_0_26_289
*738 FILLER_0_26_29
*739 FILLER_0_26_3
*740 FILLER_0_26_301
*741 FILLER_0_26_307
*742 FILLER_0_26_309
*743 FILLER_0_26_321
*744 FILLER_0_26_333
*745 FILLER_0_26_41
*746 FILLER_0_26_53
*747 FILLER_0_26_65
*748 FILLER_0_26_77
*749 FILLER_0_26_83
*750 FILLER_0_26_85
*751 FILLER_0_26_97
*752 FILLER_0_27_105
*753 FILLER_0_27_111
*754 FILLER_0_27_113
*755 FILLER_0_27_125
*756 FILLER_0_27_137
*757 FILLER_0_27_149
*758 FILLER_0_27_15
*759 FILLER_0_27_161
*760 FILLER_0_27_167
*761 FILLER_0_27_169
*762 FILLER_0_27_181
*763 FILLER_0_27_193
*764 FILLER_0_27_205
*765 FILLER_0_27_217
*766 FILLER_0_27_223
*767 FILLER_0_27_225
*768 FILLER_0_27_237
*769 FILLER_0_27_249
*770 FILLER_0_27_261
*771 FILLER_0_27_27
*772 FILLER_0_27_273
*773 FILLER_0_27_279
*774 FILLER_0_27_281
*775 FILLER_0_27_293
*776 FILLER_0_27_3
*777 FILLER_0_27_305
*778 FILLER_0_27_317
*779 FILLER_0_27_329
*780 FILLER_0_27_39
*781 FILLER_0_27_51
*782 FILLER_0_27_55
*783 FILLER_0_27_57
*784 FILLER_0_27_69
*785 FILLER_0_27_81
*786 FILLER_0_27_93
*787 FILLER_0_28_109
*788 FILLER_0_28_121
*789 FILLER_0_28_133
*790 FILLER_0_28_139
*791 FILLER_0_28_141
*792 FILLER_0_28_15
*793 FILLER_0_28_153
*794 FILLER_0_28_165
*795 FILLER_0_28_177
*796 FILLER_0_28_189
*797 FILLER_0_28_195
*798 FILLER_0_28_197
*799 FILLER_0_28_209
*800 FILLER_0_28_221
*801 FILLER_0_28_233
*802 FILLER_0_28_245
*803 FILLER_0_28_251
*804 FILLER_0_28_253
*805 FILLER_0_28_265
*806 FILLER_0_28_27
*807 FILLER_0_28_277
*808 FILLER_0_28_289
*809 FILLER_0_28_29
*810 FILLER_0_28_3
*811 FILLER_0_28_301
*812 FILLER_0_28_307
*813 FILLER_0_28_309
*814 FILLER_0_28_321
*815 FILLER_0_28_333
*816 FILLER_0_28_41
*817 FILLER_0_28_53
*818 FILLER_0_28_65
*819 FILLER_0_28_77
*820 FILLER_0_28_83
*821 FILLER_0_28_85
*822 FILLER_0_28_97
*823 FILLER_0_29_105
*824 FILLER_0_29_111
*825 FILLER_0_29_113
*826 FILLER_0_29_125
*827 FILLER_0_29_137
*828 FILLER_0_29_149
*829 FILLER_0_29_15
*830 FILLER_0_29_161
*831 FILLER_0_29_167
*832 FILLER_0_29_169
*833 FILLER_0_29_181
*834 FILLER_0_29_193
*835 FILLER_0_29_205
*836 FILLER_0_29_217
*837 FILLER_0_29_223
*838 FILLER_0_29_225
*839 FILLER_0_29_237
*840 FILLER_0_29_249
*841 FILLER_0_29_261
*842 FILLER_0_29_27
*843 FILLER_0_29_273
*844 FILLER_0_29_279
*845 FILLER_0_29_281
*846 FILLER_0_29_293
*847 FILLER_0_29_3
*848 FILLER_0_29_305
*849 FILLER_0_29_317
*850 FILLER_0_29_329
*851 FILLER_0_29_39
*852 FILLER_0_29_51
*853 FILLER_0_29_55
*854 FILLER_0_29_57
*855 FILLER_0_29_69
*856 FILLER_0_29_81
*857 FILLER_0_29_93
*858 FILLER_0_2_109
*859 FILLER_0_2_121
*860 FILLER_0_2_133
*861 FILLER_0_2_139
*862 FILLER_0_2_141
*863 FILLER_0_2_15
*864 FILLER_0_2_153
*865 FILLER_0_2_165
*866 FILLER_0_2_177
*867 FILLER_0_2_189
*868 FILLER_0_2_195
*869 FILLER_0_2_197
*870 FILLER_0_2_209
*871 FILLER_0_2_221
*872 FILLER_0_2_233
*873 FILLER_0_2_245
*874 FILLER_0_2_251
*875 FILLER_0_2_253
*876 FILLER_0_2_265
*877 FILLER_0_2_27
*878 FILLER_0_2_277
*879 FILLER_0_2_289
*880 FILLER_0_2_29
*881 FILLER_0_2_3
*882 FILLER_0_2_301
*883 FILLER_0_2_307
*884 FILLER_0_2_309
*885 FILLER_0_2_321
*886 FILLER_0_2_333
*887 FILLER_0_2_41
*888 FILLER_0_2_53
*889 FILLER_0_2_65
*890 FILLER_0_2_77
*891 FILLER_0_2_83
*892 FILLER_0_2_85
*893 FILLER_0_2_97
*894 FILLER_0_30_109
*895 FILLER_0_30_121
*896 FILLER_0_30_133
*897 FILLER_0_30_139
*898 FILLER_0_30_141
*899 FILLER_0_30_15
*900 FILLER_0_30_153
*901 FILLER_0_30_165
*902 FILLER_0_30_177
*903 FILLER_0_30_189
*904 FILLER_0_30_195
*905 FILLER_0_30_197
*906 FILLER_0_30_209
*907 FILLER_0_30_221
*908 FILLER_0_30_233
*909 FILLER_0_30_245
*910 FILLER_0_30_251
*911 FILLER_0_30_253
*912 FILLER_0_30_265
*913 FILLER_0_30_27
*914 FILLER_0_30_277
*915 FILLER_0_30_289
*916 FILLER_0_30_29
*917 FILLER_0_30_3
*918 FILLER_0_30_301
*919 FILLER_0_30_307
*920 FILLER_0_30_309
*921 FILLER_0_30_321
*922 FILLER_0_30_333
*923 FILLER_0_30_41
*924 FILLER_0_30_53
*925 FILLER_0_30_65
*926 FILLER_0_30_77
*927 FILLER_0_30_83
*928 FILLER_0_30_85
*929 FILLER_0_30_97
*930 FILLER_0_31_105
*931 FILLER_0_31_111
*932 FILLER_0_31_113
*933 FILLER_0_31_125
*934 FILLER_0_31_137
*935 FILLER_0_31_149
*936 FILLER_0_31_15
*937 FILLER_0_31_161
*938 FILLER_0_31_167
*939 FILLER_0_31_169
*940 FILLER_0_31_181
*941 FILLER_0_31_193
*942 FILLER_0_31_205
*943 FILLER_0_31_217
*944 FILLER_0_31_223
*945 FILLER_0_31_225
*946 FILLER_0_31_237
*947 FILLER_0_31_249
*948 FILLER_0_31_261
*949 FILLER_0_31_27
*950 FILLER_0_31_273
*951 FILLER_0_31_279
*952 FILLER_0_31_281
*953 FILLER_0_31_293
*954 FILLER_0_31_3
*955 FILLER_0_31_305
*956 FILLER_0_31_317
*957 FILLER_0_31_329
*958 FILLER_0_31_39
*959 FILLER_0_31_51
*960 FILLER_0_31_55
*961 FILLER_0_31_57
*962 FILLER_0_31_69
*963 FILLER_0_31_81
*964 FILLER_0_31_93
*965 FILLER_0_32_109
*966 FILLER_0_32_121
*967 FILLER_0_32_133
*968 FILLER_0_32_139
*969 FILLER_0_32_141
*970 FILLER_0_32_15
*971 FILLER_0_32_153
*972 FILLER_0_32_165
*973 FILLER_0_32_177
*974 FILLER_0_32_189
*975 FILLER_0_32_195
*976 FILLER_0_32_197
*977 FILLER_0_32_209
*978 FILLER_0_32_221
*979 FILLER_0_32_233
*980 FILLER_0_32_245
*981 FILLER_0_32_251
*982 FILLER_0_32_253
*983 FILLER_0_32_265
*984 FILLER_0_32_27
*985 FILLER_0_32_277
*986 FILLER_0_32_289
*987 FILLER_0_32_29
*988 FILLER_0_32_3
*989 FILLER_0_32_301
*990 FILLER_0_32_307
*991 FILLER_0_32_309
*992 FILLER_0_32_321
*993 FILLER_0_32_333
*994 FILLER_0_32_41
*995 FILLER_0_32_53
*996 FILLER_0_32_65
*997 FILLER_0_32_77
*998 FILLER_0_32_83
*999 FILLER_0_32_85
*1000 FILLER_0_32_97
*1001 FILLER_0_33_105
*1002 FILLER_0_33_111
*1003 FILLER_0_33_113
*1004 FILLER_0_33_125
*1005 FILLER_0_33_137
*1006 FILLER_0_33_149
*1007 FILLER_0_33_15
*1008 FILLER_0_33_161
*1009 FILLER_0_33_167
*1010 FILLER_0_33_169
*1011 FILLER_0_33_181
*1012 FILLER_0_33_193
*1013 FILLER_0_33_205
*1014 FILLER_0_33_217
*1015 FILLER_0_33_223
*1016 FILLER_0_33_225
*1017 FILLER_0_33_237
*1018 FILLER_0_33_249
*1019 FILLER_0_33_261
*1020 FILLER_0_33_27
*1021 FILLER_0_33_273
*1022 FILLER_0_33_279
*1023 FILLER_0_33_281
*1024 FILLER_0_33_293
*1025 FILLER_0_33_3
*1026 FILLER_0_33_305
*1027 FILLER_0_33_317
*1028 FILLER_0_33_329
*1029 FILLER_0_33_39
*1030 FILLER_0_33_51
*1031 FILLER_0_33_55
*1032 FILLER_0_33_57
*1033 FILLER_0_33_69
*1034 FILLER_0_33_81
*1035 FILLER_0_33_93
*1036 FILLER_0_34_109
*1037 FILLER_0_34_121
*1038 FILLER_0_34_133
*1039 FILLER_0_34_139
*1040 FILLER_0_34_141
*1041 FILLER_0_34_15
*1042 FILLER_0_34_153
*1043 FILLER_0_34_165
*1044 FILLER_0_34_177
*1045 FILLER_0_34_189
*1046 FILLER_0_34_195
*1047 FILLER_0_34_197
*1048 FILLER_0_34_209
*1049 FILLER_0_34_221
*1050 FILLER_0_34_233
*1051 FILLER_0_34_245
*1052 FILLER_0_34_251
*1053 FILLER_0_34_253
*1054 FILLER_0_34_265
*1055 FILLER_0_34_27
*1056 FILLER_0_34_277
*1057 FILLER_0_34_289
*1058 FILLER_0_34_29
*1059 FILLER_0_34_3
*1060 FILLER_0_34_301
*1061 FILLER_0_34_307
*1062 FILLER_0_34_309
*1063 FILLER_0_34_321
*1064 FILLER_0_34_333
*1065 FILLER_0_34_41
*1066 FILLER_0_34_53
*1067 FILLER_0_34_65
*1068 FILLER_0_34_77
*1069 FILLER_0_34_83
*1070 FILLER_0_34_85
*1071 FILLER_0_34_97
*1072 FILLER_0_35_105
*1073 FILLER_0_35_111
*1074 FILLER_0_35_113
*1075 FILLER_0_35_125
*1076 FILLER_0_35_137
*1077 FILLER_0_35_149
*1078 FILLER_0_35_15
*1079 FILLER_0_35_161
*1080 FILLER_0_35_167
*1081 FILLER_0_35_169
*1082 FILLER_0_35_181
*1083 FILLER_0_35_193
*1084 FILLER_0_35_205
*1085 FILLER_0_35_217
*1086 FILLER_0_35_223
*1087 FILLER_0_35_225
*1088 FILLER_0_35_237
*1089 FILLER_0_35_249
*1090 FILLER_0_35_261
*1091 FILLER_0_35_27
*1092 FILLER_0_35_273
*1093 FILLER_0_35_279
*1094 FILLER_0_35_281
*1095 FILLER_0_35_293
*1096 FILLER_0_35_3
*1097 FILLER_0_35_305
*1098 FILLER_0_35_316
*1099 FILLER_0_35_328
*1100 FILLER_0_35_334
*1101 FILLER_0_35_39
*1102 FILLER_0_35_51
*1103 FILLER_0_35_55
*1104 FILLER_0_35_57
*1105 FILLER_0_35_69
*1106 FILLER_0_35_81
*1107 FILLER_0_35_93
*1108 FILLER_0_36_109
*1109 FILLER_0_36_121
*1110 FILLER_0_36_133
*1111 FILLER_0_36_139
*1112 FILLER_0_36_141
*1113 FILLER_0_36_15
*1114 FILLER_0_36_153
*1115 FILLER_0_36_165
*1116 FILLER_0_36_177
*1117 FILLER_0_36_189
*1118 FILLER_0_36_195
*1119 FILLER_0_36_197
*1120 FILLER_0_36_209
*1121 FILLER_0_36_221
*1122 FILLER_0_36_233
*1123 FILLER_0_36_245
*1124 FILLER_0_36_251
*1125 FILLER_0_36_253
*1126 FILLER_0_36_265
*1127 FILLER_0_36_27
*1128 FILLER_0_36_277
*1129 FILLER_0_36_29
*1130 FILLER_0_36_3
*1131 FILLER_0_36_305
*1132 FILLER_0_36_321
*1133 FILLER_0_36_333
*1134 FILLER_0_36_41
*1135 FILLER_0_36_53
*1136 FILLER_0_36_65
*1137 FILLER_0_36_77
*1138 FILLER_0_36_83
*1139 FILLER_0_36_85
*1140 FILLER_0_36_97
*1141 FILLER_0_37_104
*1142 FILLER_0_37_110
*1143 FILLER_0_37_116
*1144 FILLER_0_37_122
*1145 FILLER_0_37_128
*1146 FILLER_0_37_134
*1147 FILLER_0_37_140
*1148 FILLER_0_37_146
*1149 FILLER_0_37_15
*1150 FILLER_0_37_152
*1151 FILLER_0_37_158
*1152 FILLER_0_37_164
*1153 FILLER_0_37_169
*1154 FILLER_0_37_176
*1155 FILLER_0_37_182
*1156 FILLER_0_37_186
*1157 FILLER_0_37_190
*1158 FILLER_0_37_202
*1159 FILLER_0_37_214
*1160 FILLER_0_37_222
*1161 FILLER_0_37_225
*1162 FILLER_0_37_237
*1163 FILLER_0_37_249
*1164 FILLER_0_37_261
*1165 FILLER_0_37_27
*1166 FILLER_0_37_273
*1167 FILLER_0_37_279
*1168 FILLER_0_37_281
*1169 FILLER_0_37_3
*1170 FILLER_0_37_312
*1171 FILLER_0_37_39
*1172 FILLER_0_37_51
*1173 FILLER_0_37_55
*1174 FILLER_0_37_57
*1175 FILLER_0_37_68
*1176 FILLER_0_37_74
*1177 FILLER_0_37_80
*1178 FILLER_0_37_86
*1179 FILLER_0_37_94
*1180 FILLER_0_37_98
*1181 FILLER_0_38_104
*1182 FILLER_0_38_110
*1183 FILLER_0_38_117
*1184 FILLER_0_38_122
*1185 FILLER_0_38_128
*1186 FILLER_0_38_134
*1187 FILLER_0_38_141
*1188 FILLER_0_38_146
*1189 FILLER_0_38_15
*1190 FILLER_0_38_152
*1191 FILLER_0_38_158
*1192 FILLER_0_38_164
*1193 FILLER_0_38_177
*1194 FILLER_0_38_183
*1195 FILLER_0_38_195
*1196 FILLER_0_38_197
*1197 FILLER_0_38_209
*1198 FILLER_0_38_221
*1199 FILLER_0_38_225
*1200 FILLER_0_38_237
*1201 FILLER_0_38_249
*1202 FILLER_0_38_253
*1203 FILLER_0_38_265
*1204 FILLER_0_38_27
*1205 FILLER_0_38_277
*1206 FILLER_0_38_287
*1207 FILLER_0_38_29
*1208 FILLER_0_38_3
*1209 FILLER_0_38_329
*1210 FILLER_0_38_41
*1211 FILLER_0_38_53
*1212 FILLER_0_38_57
*1213 FILLER_0_38_69
*1214 FILLER_0_38_74
*1215 FILLER_0_38_92
*1216 FILLER_0_38_98
*1217 FILLER_0_3_105
*1218 FILLER_0_3_111
*1219 FILLER_0_3_113
*1220 FILLER_0_3_125
*1221 FILLER_0_3_137
*1222 FILLER_0_3_149
*1223 FILLER_0_3_15
*1224 FILLER_0_3_161
*1225 FILLER_0_3_167
*1226 FILLER_0_3_169
*1227 FILLER_0_3_181
*1228 FILLER_0_3_193
*1229 FILLER_0_3_205
*1230 FILLER_0_3_217
*1231 FILLER_0_3_223
*1232 FILLER_0_3_225
*1233 FILLER_0_3_237
*1234 FILLER_0_3_249
*1235 FILLER_0_3_261
*1236 FILLER_0_3_27
*1237 FILLER_0_3_273
*1238 FILLER_0_3_279
*1239 FILLER_0_3_281
*1240 FILLER_0_3_293
*1241 FILLER_0_3_3
*1242 FILLER_0_3_305
*1243 FILLER_0_3_317
*1244 FILLER_0_3_329
*1245 FILLER_0_3_39
*1246 FILLER_0_3_51
*1247 FILLER_0_3_55
*1248 FILLER_0_3_57
*1249 FILLER_0_3_69
*1250 FILLER_0_3_81
*1251 FILLER_0_3_93
*1252 FILLER_0_4_109
*1253 FILLER_0_4_121
*1254 FILLER_0_4_133
*1255 FILLER_0_4_139
*1256 FILLER_0_4_141
*1257 FILLER_0_4_15
*1258 FILLER_0_4_153
*1259 FILLER_0_4_165
*1260 FILLER_0_4_177
*1261 FILLER_0_4_189
*1262 FILLER_0_4_195
*1263 FILLER_0_4_197
*1264 FILLER_0_4_209
*1265 FILLER_0_4_221
*1266 FILLER_0_4_233
*1267 FILLER_0_4_245
*1268 FILLER_0_4_251
*1269 FILLER_0_4_253
*1270 FILLER_0_4_265
*1271 FILLER_0_4_27
*1272 FILLER_0_4_277
*1273 FILLER_0_4_289
*1274 FILLER_0_4_29
*1275 FILLER_0_4_3
*1276 FILLER_0_4_301
*1277 FILLER_0_4_307
*1278 FILLER_0_4_309
*1279 FILLER_0_4_321
*1280 FILLER_0_4_333
*1281 FILLER_0_4_41
*1282 FILLER_0_4_53
*1283 FILLER_0_4_65
*1284 FILLER_0_4_77
*1285 FILLER_0_4_83
*1286 FILLER_0_4_85
*1287 FILLER_0_4_97
*1288 FILLER_0_5_105
*1289 FILLER_0_5_111
*1290 FILLER_0_5_113
*1291 FILLER_0_5_125
*1292 FILLER_0_5_137
*1293 FILLER_0_5_149
*1294 FILLER_0_5_15
*1295 FILLER_0_5_161
*1296 FILLER_0_5_167
*1297 FILLER_0_5_169
*1298 FILLER_0_5_181
*1299 FILLER_0_5_193
*1300 FILLER_0_5_205
*1301 FILLER_0_5_217
*1302 FILLER_0_5_223
*1303 FILLER_0_5_225
*1304 FILLER_0_5_237
*1305 FILLER_0_5_249
*1306 FILLER_0_5_261
*1307 FILLER_0_5_27
*1308 FILLER_0_5_273
*1309 FILLER_0_5_279
*1310 FILLER_0_5_281
*1311 FILLER_0_5_293
*1312 FILLER_0_5_3
*1313 FILLER_0_5_305
*1314 FILLER_0_5_317
*1315 FILLER_0_5_329
*1316 FILLER_0_5_39
*1317 FILLER_0_5_51
*1318 FILLER_0_5_55
*1319 FILLER_0_5_57
*1320 FILLER_0_5_69
*1321 FILLER_0_5_81
*1322 FILLER_0_5_93
*1323 FILLER_0_6_109
*1324 FILLER_0_6_121
*1325 FILLER_0_6_133
*1326 FILLER_0_6_139
*1327 FILLER_0_6_141
*1328 FILLER_0_6_15
*1329 FILLER_0_6_153
*1330 FILLER_0_6_165
*1331 FILLER_0_6_177
*1332 FILLER_0_6_189
*1333 FILLER_0_6_195
*1334 FILLER_0_6_197
*1335 FILLER_0_6_209
*1336 FILLER_0_6_221
*1337 FILLER_0_6_233
*1338 FILLER_0_6_245
*1339 FILLER_0_6_251
*1340 FILLER_0_6_253
*1341 FILLER_0_6_265
*1342 FILLER_0_6_27
*1343 FILLER_0_6_277
*1344 FILLER_0_6_289
*1345 FILLER_0_6_29
*1346 FILLER_0_6_3
*1347 FILLER_0_6_301
*1348 FILLER_0_6_307
*1349 FILLER_0_6_309
*1350 FILLER_0_6_321
*1351 FILLER_0_6_333
*1352 FILLER_0_6_41
*1353 FILLER_0_6_53
*1354 FILLER_0_6_65
*1355 FILLER_0_6_77
*1356 FILLER_0_6_83
*1357 FILLER_0_6_85
*1358 FILLER_0_6_97
*1359 FILLER_0_7_105
*1360 FILLER_0_7_111
*1361 FILLER_0_7_113
*1362 FILLER_0_7_125
*1363 FILLER_0_7_137
*1364 FILLER_0_7_149
*1365 FILLER_0_7_15
*1366 FILLER_0_7_161
*1367 FILLER_0_7_167
*1368 FILLER_0_7_169
*1369 FILLER_0_7_181
*1370 FILLER_0_7_193
*1371 FILLER_0_7_205
*1372 FILLER_0_7_217
*1373 FILLER_0_7_223
*1374 FILLER_0_7_225
*1375 FILLER_0_7_237
*1376 FILLER_0_7_249
*1377 FILLER_0_7_261
*1378 FILLER_0_7_27
*1379 FILLER_0_7_273
*1380 FILLER_0_7_279
*1381 FILLER_0_7_281
*1382 FILLER_0_7_293
*1383 FILLER_0_7_3
*1384 FILLER_0_7_305
*1385 FILLER_0_7_317
*1386 FILLER_0_7_329
*1387 FILLER_0_7_39
*1388 FILLER_0_7_51
*1389 FILLER_0_7_55
*1390 FILLER_0_7_57
*1391 FILLER_0_7_69
*1392 FILLER_0_7_81
*1393 FILLER_0_7_93
*1394 FILLER_0_8_109
*1395 FILLER_0_8_121
*1396 FILLER_0_8_133
*1397 FILLER_0_8_139
*1398 FILLER_0_8_141
*1399 FILLER_0_8_15
*1400 FILLER_0_8_153
*1401 FILLER_0_8_165
*1402 FILLER_0_8_177
*1403 FILLER_0_8_189
*1404 FILLER_0_8_195
*1405 FILLER_0_8_197
*1406 FILLER_0_8_209
*1407 FILLER_0_8_221
*1408 FILLER_0_8_233
*1409 FILLER_0_8_245
*1410 FILLER_0_8_251
*1411 FILLER_0_8_253
*1412 FILLER_0_8_265
*1413 FILLER_0_8_27
*1414 FILLER_0_8_277
*1415 FILLER_0_8_289
*1416 FILLER_0_8_29
*1417 FILLER_0_8_3
*1418 FILLER_0_8_301
*1419 FILLER_0_8_307
*1420 FILLER_0_8_309
*1421 FILLER_0_8_321
*1422 FILLER_0_8_333
*1423 FILLER_0_8_41
*1424 FILLER_0_8_53
*1425 FILLER_0_8_65
*1426 FILLER_0_8_77
*1427 FILLER_0_8_83
*1428 FILLER_0_8_85
*1429 FILLER_0_8_97
*1430 FILLER_0_9_105
*1431 FILLER_0_9_111
*1432 FILLER_0_9_113
*1433 FILLER_0_9_125
*1434 FILLER_0_9_137
*1435 FILLER_0_9_149
*1436 FILLER_0_9_15
*1437 FILLER_0_9_161
*1438 FILLER_0_9_167
*1439 FILLER_0_9_169
*1440 FILLER_0_9_181
*1441 FILLER_0_9_193
*1442 FILLER_0_9_205
*1443 FILLER_0_9_217
*1444 FILLER_0_9_223
*1445 FILLER_0_9_225
*1446 FILLER_0_9_237
*1447 FILLER_0_9_249
*1448 FILLER_0_9_261
*1449 FILLER_0_9_27
*1450 FILLER_0_9_273
*1451 FILLER_0_9_279
*1452 FILLER_0_9_281
*1453 FILLER_0_9_293
*1454 FILLER_0_9_3
*1455 FILLER_0_9_305
*1456 FILLER_0_9_317
*1457 FILLER_0_9_329
*1458 FILLER_0_9_39
*1459 FILLER_0_9_51
*1460 FILLER_0_9_55
*1461 FILLER_0_9_57