*SPEF "ieee 1481-1999"
*DESIGN "inverter"
*DATE "11:11:11 Fri 11 11, 1111"
*VENDOR "OpenRCX"
*PROGRAM "Parallel Extraction"
*VERSION "1.0"
*DESIGN_FLOW "NAME_SCOPE LOCAL" "PIN_CAP NONE"
*DIVIDER /
*DELIMITER :
*BUS_DELIMITER []
*T_UNIT 1 NS
*C_UNIT 1 PF
*R_UNIT 1 OHM
*L_UNIT 1 HENRY

*NAME_MAP
*3 in
*4 out
*5 wire1
*6 FILLER_0_10009
*7 FILLER_0_10021
*8 FILLER_0_10025
*9 FILLER_0_10037
*10 FILLER_0_10049
*11 FILLER_0_1005
*12 FILLER_0_10053
*13 FILLER_0_10065
*14 FILLER_0_10077
*15 FILLER_0_10081
*16 FILLER_0_1009
*17 FILLER_0_10093
*18 FILLER_0_10105
*19 FILLER_0_10109
*20 FILLER_0_10121
*21 FILLER_0_10133
*22 FILLER_0_10137
*23 FILLER_0_10149
*24 FILLER_0_10161
*25 FILLER_0_10165
*26 FILLER_0_10177
*27 FILLER_0_10189
*28 FILLER_0_10193
*29 FILLER_0_10205
*30 FILLER_0_1021
*31 FILLER_0_10217
*32 FILLER_0_10221
*33 FILLER_0_10233
*34 FILLER_0_10245
*35 FILLER_0_10249
*36 FILLER_0_10261
*37 FILLER_0_10273
*38 FILLER_0_10277
*39 FILLER_0_10289
*40 FILLER_0_10301
*41 FILLER_0_10305
*42 FILLER_0_10317
*43 FILLER_0_10329
*44 FILLER_0_1033
*45 FILLER_0_10333
*46 FILLER_0_10345
*47 FILLER_0_10357
*48 FILLER_0_10361
*49 FILLER_0_1037
*50 FILLER_0_10373
*51 FILLER_0_10385
*52 FILLER_0_10389
*53 FILLER_0_10401
*54 FILLER_0_10413
*55 FILLER_0_10417
*56 FILLER_0_10429
*57 FILLER_0_10441
*58 FILLER_0_10445
*59 FILLER_0_10457
*60 FILLER_0_10469
*61 FILLER_0_10473
*62 FILLER_0_10485
*63 FILLER_0_1049
*64 FILLER_0_10497
*65 FILLER_0_10501
*66 FILLER_0_10513
*67 FILLER_0_10525
*68 FILLER_0_10529
*69 FILLER_0_10541
*70 FILLER_0_10553
*71 FILLER_0_10557
*72 FILLER_0_10569
*73 FILLER_0_10581
*74 FILLER_0_10585
*75 FILLER_0_10597
*76 FILLER_0_10609
*77 FILLER_0_1061
*78 FILLER_0_10613
*79 FILLER_0_10625
*80 FILLER_0_10637
*81 FILLER_0_10641
*82 FILLER_0_1065
*83 FILLER_0_10653
*84 FILLER_0_10665
*85 FILLER_0_10669
*86 FILLER_0_10681
*87 FILLER_0_10693
*88 FILLER_0_10697
*89 FILLER_0_10709
*90 FILLER_0_10721
*91 FILLER_0_10725
*92 FILLER_0_10737
*93 FILLER_0_10749
*94 FILLER_0_10753
*95 FILLER_0_10765
*96 FILLER_0_1077
*97 FILLER_0_10777
*98 FILLER_0_10781
*99 FILLER_0_10793
*100 FILLER_0_10805
*101 FILLER_0_10809
*102 FILLER_0_10821
*103 FILLER_0_10833
*104 FILLER_0_10837
*105 FILLER_0_10849
*106 FILLER_0_10861
*107 FILLER_0_1089
*108 FILLER_0_109
*109 FILLER_0_1093
*110 FILLER_0_1105
*111 FILLER_0_1117
*112 FILLER_0_1121
*113 FILLER_0_113
*114 FILLER_0_1133
*115 FILLER_0_1145
*116 FILLER_0_1149
*117 FILLER_0_1161
*118 FILLER_0_1173
*119 FILLER_0_1177
*120 FILLER_0_1189
*121 FILLER_0_1201
*122 FILLER_0_1205
*123 FILLER_0_1217
*124 FILLER_0_1229
*125 FILLER_0_1233
*126 FILLER_0_1245
*127 FILLER_0_125
*128 FILLER_0_1257
*129 FILLER_0_1261
*130 FILLER_0_1273
*131 FILLER_0_1285
*132 FILLER_0_1289
*133 FILLER_0_1301
*134 FILLER_0_1313
*135 FILLER_0_1317
*136 FILLER_0_1329
*137 FILLER_0_1341
*138 FILLER_0_1345
*139 FILLER_0_1357
*140 FILLER_0_1369
*141 FILLER_0_137
*142 FILLER_0_1373
*143 FILLER_0_1385
*144 FILLER_0_1397
*145 FILLER_0_1401
*146 FILLER_0_141
*147 FILLER_0_1413
*148 FILLER_0_1425
*149 FILLER_0_1429
*150 FILLER_0_1441
*151 FILLER_0_1453
*152 FILLER_0_1457
*153 FILLER_0_1469
*154 FILLER_0_1481
*155 FILLER_0_1485
*156 FILLER_0_1497
*157 FILLER_0_15
*158 FILLER_0_1509
*159 FILLER_0_1513
*160 FILLER_0_1525
*161 FILLER_0_153
*162 FILLER_0_1537
*163 FILLER_0_1541
*164 FILLER_0_1553
*165 FILLER_0_1565
*166 FILLER_0_1569
*167 FILLER_0_1581
*168 FILLER_0_1593
*169 FILLER_0_1597
*170 FILLER_0_1609
*171 FILLER_0_1621
*172 FILLER_0_1625
*173 FILLER_0_1637
*174 FILLER_0_1649
*175 FILLER_0_165
*176 FILLER_0_1653
*177 FILLER_0_1665
*178 FILLER_0_1677
*179 FILLER_0_1681
*180 FILLER_0_169
*181 FILLER_0_1693
*182 FILLER_0_1705
*183 FILLER_0_1709
*184 FILLER_0_1721
*185 FILLER_0_1733
*186 FILLER_0_1737
*187 FILLER_0_1749
*188 FILLER_0_1761
*189 FILLER_0_1765
*190 FILLER_0_1777
*191 FILLER_0_1789
*192 FILLER_0_1793
*193 FILLER_0_1805
*194 FILLER_0_181
*195 FILLER_0_1817
*196 FILLER_0_1821
*197 FILLER_0_1833
*198 FILLER_0_1845
*199 FILLER_0_1849
*200 FILLER_0_1861
*201 FILLER_0_1873
*202 FILLER_0_1877
*203 FILLER_0_1889
*204 FILLER_0_1901
*205 FILLER_0_1905
*206 FILLER_0_1917
*207 FILLER_0_1929
*208 FILLER_0_193
*209 FILLER_0_1933
*210 FILLER_0_1945
*211 FILLER_0_1957
*212 FILLER_0_1961
*213 FILLER_0_197
*214 FILLER_0_1973
*215 FILLER_0_1985
*216 FILLER_0_1989
*217 FILLER_0_2001
*218 FILLER_0_2013
*219 FILLER_0_2017
*220 FILLER_0_2029
*221 FILLER_0_2041
*222 FILLER_0_2045
*223 FILLER_0_2057
*224 FILLER_0_2069
*225 FILLER_0_2073
*226 FILLER_0_2085
*227 FILLER_0_209
*228 FILLER_0_2097
*229 FILLER_0_2101
*230 FILLER_0_2113
*231 FILLER_0_2125
*232 FILLER_0_2129
*233 FILLER_0_2141
*234 FILLER_0_2153
*235 FILLER_0_2157
*236 FILLER_0_2169
*237 FILLER_0_2181
*238 FILLER_0_2185
*239 FILLER_0_2197
*240 FILLER_0_2209
*241 FILLER_0_221
*242 FILLER_0_2213
*243 FILLER_0_2225
*244 FILLER_0_2237
*245 FILLER_0_2241
*246 FILLER_0_225
*247 FILLER_0_2253
*248 FILLER_0_2265
*249 FILLER_0_2269
*250 FILLER_0_2281
*251 FILLER_0_2293
*252 FILLER_0_2297
*253 FILLER_0_2309
*254 FILLER_0_2321
*255 FILLER_0_2325
*256 FILLER_0_2337
*257 FILLER_0_2349
*258 FILLER_0_2353
*259 FILLER_0_2365
*260 FILLER_0_237
*261 FILLER_0_2377
*262 FILLER_0_2381
*263 FILLER_0_2393
*264 FILLER_0_2405
*265 FILLER_0_2409
*266 FILLER_0_2421
*267 FILLER_0_2433
*268 FILLER_0_2437
*269 FILLER_0_2449
*270 FILLER_0_2461
*271 FILLER_0_2465
*272 FILLER_0_2477
*273 FILLER_0_2489
*274 FILLER_0_249
*275 FILLER_0_2493
*276 FILLER_0_2505
*277 FILLER_0_2517
*278 FILLER_0_2521
*279 FILLER_0_253
*280 FILLER_0_2533
*281 FILLER_0_2545
*282 FILLER_0_2549
*283 FILLER_0_2561
*284 FILLER_0_2573
*285 FILLER_0_2577
*286 FILLER_0_2589
*287 FILLER_0_2601
*288 FILLER_0_2605
*289 FILLER_0_2617
*290 FILLER_0_2629
*291 FILLER_0_2633
*292 FILLER_0_2645
*293 FILLER_0_265
*294 FILLER_0_2657
*295 FILLER_0_2661
*296 FILLER_0_2673
*297 FILLER_0_2685
*298 FILLER_0_2689
*299 FILLER_0_27
*300 FILLER_0_2701
*301 FILLER_0_2713
*302 FILLER_0_2717
*303 FILLER_0_2729
*304 FILLER_0_2741
*305 FILLER_0_2745
*306 FILLER_0_2757
*307 FILLER_0_2769
*308 FILLER_0_277
*309 FILLER_0_2773
*310 FILLER_0_2785
*311 FILLER_0_2797
*312 FILLER_0_2801
*313 FILLER_0_281
*314 FILLER_0_2813
*315 FILLER_0_2825
*316 FILLER_0_2829
*317 FILLER_0_2841
*318 FILLER_0_2853
*319 FILLER_0_2857
*320 FILLER_0_2869
*321 FILLER_0_2881
*322 FILLER_0_2885
*323 FILLER_0_2897
*324 FILLER_0_29
*325 FILLER_0_2909
*326 FILLER_0_2913
*327 FILLER_0_2925
*328 FILLER_0_293
*329 FILLER_0_2937
*330 FILLER_0_2941
*331 FILLER_0_2953
*332 FILLER_0_2965
*333 FILLER_0_2969
*334 FILLER_0_2981
*335 FILLER_0_2993
*336 FILLER_0_2997
*337 FILLER_0_3
*338 FILLER_0_3009
*339 FILLER_0_3021
*340 FILLER_0_3025
*341 FILLER_0_3037
*342 FILLER_0_3049
*343 FILLER_0_305
*344 FILLER_0_3053
*345 FILLER_0_3065
*346 FILLER_0_3077
*347 FILLER_0_3081
*348 FILLER_0_309
*349 FILLER_0_3093
*350 FILLER_0_3105
*351 FILLER_0_3109
*352 FILLER_0_3121
*353 FILLER_0_3133
*354 FILLER_0_3137
*355 FILLER_0_3149
*356 FILLER_0_3161
*357 FILLER_0_3165
*358 FILLER_0_3177
*359 FILLER_0_3189
*360 FILLER_0_3193
*361 FILLER_0_3205
*362 FILLER_0_321
*363 FILLER_0_3217
*364 FILLER_0_3221
*365 FILLER_0_3233
*366 FILLER_0_3245
*367 FILLER_0_3249
*368 FILLER_0_3261
*369 FILLER_0_3273
*370 FILLER_0_3277
*371 FILLER_0_3289
*372 FILLER_0_3301
*373 FILLER_0_3305
*374 FILLER_0_3317
*375 FILLER_0_3329
*376 FILLER_0_333
*377 FILLER_0_3333
*378 FILLER_0_3345
*379 FILLER_0_3357
*380 FILLER_0_3361
*381 FILLER_0_337
*382 FILLER_0_3373
*383 FILLER_0_3385
*384 FILLER_0_3389
*385 FILLER_0_3401
*386 FILLER_0_3413
*387 FILLER_0_3417
*388 FILLER_0_3429
*389 FILLER_0_3441
*390 FILLER_0_3445
*391 FILLER_0_3457
*392 FILLER_0_3469
*393 FILLER_0_3473
*394 FILLER_0_3485
*395 FILLER_0_349
*396 FILLER_0_3497
*397 FILLER_0_3501
*398 FILLER_0_3513
*399 FILLER_0_3525
*400 FILLER_0_3529
*401 FILLER_0_3541
*402 FILLER_0_3553
*403 FILLER_0_3557
*404 FILLER_0_3569
*405 FILLER_0_3581
*406 FILLER_0_3585
*407 FILLER_0_3597
*408 FILLER_0_3609
*409 FILLER_0_361
*410 FILLER_0_3613
*411 FILLER_0_3625
*412 FILLER_0_3637
*413 FILLER_0_3641
*414 FILLER_0_365
*415 FILLER_0_3653
*416 FILLER_0_3665
*417 FILLER_0_3669
*418 FILLER_0_3681
*419 FILLER_0_3693
*420 FILLER_0_3697
*421 FILLER_0_3709
*422 FILLER_0_3721
*423 FILLER_0_3725
*424 FILLER_0_3737
*425 FILLER_0_3749
*426 FILLER_0_3753
*427 FILLER_0_3765
*428 FILLER_0_377
*429 FILLER_0_3777
*430 FILLER_0_3781
*431 FILLER_0_3793
*432 FILLER_0_3805
*433 FILLER_0_3809
*434 FILLER_0_3821
*435 FILLER_0_3833
*436 FILLER_0_3837
*437 FILLER_0_3849
*438 FILLER_0_3861
*439 FILLER_0_3865
*440 FILLER_0_3877
*441 FILLER_0_3889
*442 FILLER_0_389
*443 FILLER_0_3893
*444 FILLER_0_3905
*445 FILLER_0_3917
*446 FILLER_0_3921
*447 FILLER_0_393
*448 FILLER_0_3933
*449 FILLER_0_3945
*450 FILLER_0_3949
*451 FILLER_0_3961
*452 FILLER_0_3973
*453 FILLER_0_3977
*454 FILLER_0_3989
*455 FILLER_0_4001
*456 FILLER_0_4005
*457 FILLER_0_4017
*458 FILLER_0_4029
*459 FILLER_0_4033
*460 FILLER_0_4045
*461 FILLER_0_405
*462 FILLER_0_4057
*463 FILLER_0_4061
*464 FILLER_0_4073
*465 FILLER_0_4085
*466 FILLER_0_4089
*467 FILLER_0_41
*468 FILLER_0_4101
*469 FILLER_0_4113
*470 FILLER_0_4117
*471 FILLER_0_4129
*472 FILLER_0_4141
*473 FILLER_0_4145
*474 FILLER_0_4157
*475 FILLER_0_4169
*476 FILLER_0_417
*477 FILLER_0_4173
*478 FILLER_0_4185
*479 FILLER_0_4197
*480 FILLER_0_4201
*481 FILLER_0_421
*482 FILLER_0_4213
*483 FILLER_0_4225
*484 FILLER_0_4229
*485 FILLER_0_4241
*486 FILLER_0_4253
*487 FILLER_0_4257
*488 FILLER_0_4269
*489 FILLER_0_4281
*490 FILLER_0_4285
*491 FILLER_0_4297
*492 FILLER_0_4309
*493 FILLER_0_4313
*494 FILLER_0_4325
*495 FILLER_0_433
*496 FILLER_0_4337
*497 FILLER_0_4341
*498 FILLER_0_4353
*499 FILLER_0_4365
*500 FILLER_0_4369
*501 FILLER_0_4381
*502 FILLER_0_4393
*503 FILLER_0_4397
*504 FILLER_0_4409
*505 FILLER_0_4421
*506 FILLER_0_4425
*507 FILLER_0_4437
*508 FILLER_0_4449
*509 FILLER_0_445
*510 FILLER_0_4453
*511 FILLER_0_4465
*512 FILLER_0_4477
*513 FILLER_0_4481
*514 FILLER_0_449
*515 FILLER_0_4493
*516 FILLER_0_4505
*517 FILLER_0_4509
*518 FILLER_0_4521
*519 FILLER_0_4533
*520 FILLER_0_4537
*521 FILLER_0_4549
*522 FILLER_0_4561
*523 FILLER_0_4565
*524 FILLER_0_4577
*525 FILLER_0_4589
*526 FILLER_0_4593
*527 FILLER_0_4605
*528 FILLER_0_461
*529 FILLER_0_4617
*530 FILLER_0_4621
*531 FILLER_0_4633
*532 FILLER_0_4645
*533 FILLER_0_4649
*534 FILLER_0_4661
*535 FILLER_0_4673
*536 FILLER_0_4677
*537 FILLER_0_4689
*538 FILLER_0_4701
*539 FILLER_0_4705
*540 FILLER_0_4717
*541 FILLER_0_4729
*542 FILLER_0_473
*543 FILLER_0_4733
*544 FILLER_0_4745
*545 FILLER_0_4757
*546 FILLER_0_4761
*547 FILLER_0_477
*548 FILLER_0_4773
*549 FILLER_0_4785
*550 FILLER_0_4789
*551 FILLER_0_4801
*552 FILLER_0_4813
*553 FILLER_0_4817
*554 FILLER_0_4829
*555 FILLER_0_4841
*556 FILLER_0_4845
*557 FILLER_0_4857
*558 FILLER_0_4869
*559 FILLER_0_4873
*560 FILLER_0_4885
*561 FILLER_0_489
*562 FILLER_0_4897
*563 FILLER_0_4901
*564 FILLER_0_4913
*565 FILLER_0_4925
*566 FILLER_0_4929
*567 FILLER_0_4941
*568 FILLER_0_4953
*569 FILLER_0_4957
*570 FILLER_0_4969
*571 FILLER_0_4981
*572 FILLER_0_4985
*573 FILLER_0_4997
*574 FILLER_0_5009
*575 FILLER_0_501
*576 FILLER_0_5013
*577 FILLER_0_5025
*578 FILLER_0_5037
*579 FILLER_0_5041
*580 FILLER_0_505
*581 FILLER_0_5053
*582 FILLER_0_5065
*583 FILLER_0_5069
*584 FILLER_0_5081
*585 FILLER_0_5093
*586 FILLER_0_5097
*587 FILLER_0_5109
*588 FILLER_0_5121
*589 FILLER_0_5125
*590 FILLER_0_5137
*591 FILLER_0_5149
*592 FILLER_0_5153
*593 FILLER_0_5165
*594 FILLER_0_517
*595 FILLER_0_5177
*596 FILLER_0_5181
*597 FILLER_0_5193
*598 FILLER_0_5205
*599 FILLER_0_5209
*600 FILLER_0_5221
*601 FILLER_0_5233
*602 FILLER_0_5237
*603 FILLER_0_5249
*604 FILLER_0_5261
*605 FILLER_0_5265
*606 FILLER_0_5277
*607 FILLER_0_5289
*608 FILLER_0_529
*609 FILLER_0_5293
*610 FILLER_0_53
*611 FILLER_0_5305
*612 FILLER_0_5317
*613 FILLER_0_5321
*614 FILLER_0_533
*615 FILLER_0_5333
*616 FILLER_0_5345
*617 FILLER_0_5349
*618 FILLER_0_5361
*619 FILLER_0_5373
*620 FILLER_0_5377
*621 FILLER_0_5389
*622 FILLER_0_5401
*623 FILLER_0_5405
*624 FILLER_0_5417
*625 FILLER_0_5429
*626 FILLER_0_5433
*627 FILLER_0_5445
*628 FILLER_0_545
*629 FILLER_0_5457
*630 FILLER_0_5461
*631 FILLER_0_5473
*632 FILLER_0_5485
*633 FILLER_0_5489
*634 FILLER_0_5501
*635 FILLER_0_5513
*636 FILLER_0_5517
*637 FILLER_0_5529
*638 FILLER_0_5541
*639 FILLER_0_5545
*640 FILLER_0_5557
*641 FILLER_0_5569
*642 FILLER_0_557
*643 FILLER_0_5573
*644 FILLER_0_5585
*645 FILLER_0_5597
*646 FILLER_0_5601
*647 FILLER_0_561
*648 FILLER_0_5613
*649 FILLER_0_5625
*650 FILLER_0_5629
*651 FILLER_0_5641
*652 FILLER_0_5653
*653 FILLER_0_5657
*654 FILLER_0_5669
*655 FILLER_0_5681
*656 FILLER_0_5685
*657 FILLER_0_5697
*658 FILLER_0_57
*659 FILLER_0_5709
*660 FILLER_0_5713
*661 FILLER_0_5725
*662 FILLER_0_573
*663 FILLER_0_5737
*664 FILLER_0_5741
*665 FILLER_0_5753
*666 FILLER_0_5765
*667 FILLER_0_5769
*668 FILLER_0_5781
*669 FILLER_0_5793
*670 FILLER_0_5797
*671 FILLER_0_5809
*672 FILLER_0_5821
*673 FILLER_0_5825
*674 FILLER_0_5837
*675 FILLER_0_5849
*676 FILLER_0_585
*677 FILLER_0_5853
*678 FILLER_0_5865
*679 FILLER_0_5877
*680 FILLER_0_5881
*681 FILLER_0_589
*682 FILLER_0_5893
*683 FILLER_0_5905
*684 FILLER_0_5909
*685 FILLER_0_5921
*686 FILLER_0_5933
*687 FILLER_0_5937
*688 FILLER_0_5949
*689 FILLER_0_5961
*690 FILLER_0_5965
*691 FILLER_0_5977
*692 FILLER_0_5989
*693 FILLER_0_5993
*694 FILLER_0_6005
*695 FILLER_0_601
*696 FILLER_0_6017
*697 FILLER_0_6021
*698 FILLER_0_6033
*699 FILLER_0_6045
*700 FILLER_0_6049
*701 FILLER_0_6061
*702 FILLER_0_6073
*703 FILLER_0_6077
*704 FILLER_0_6089
*705 FILLER_0_6101
*706 FILLER_0_6105
*707 FILLER_0_6117
*708 FILLER_0_6129
*709 FILLER_0_613
*710 FILLER_0_6133
*711 FILLER_0_6145
*712 FILLER_0_6157
*713 FILLER_0_6161
*714 FILLER_0_617
*715 FILLER_0_6173
*716 FILLER_0_6185
*717 FILLER_0_6189
*718 FILLER_0_6201
*719 FILLER_0_6213
*720 FILLER_0_6217
*721 FILLER_0_6229
*722 FILLER_0_6241
*723 FILLER_0_6245
*724 FILLER_0_6257
*725 FILLER_0_6269
*726 FILLER_0_6273
*727 FILLER_0_6285
*728 FILLER_0_629
*729 FILLER_0_6297
*730 FILLER_0_6301
*731 FILLER_0_6313
*732 FILLER_0_6325
*733 FILLER_0_6329
*734 FILLER_0_6341
*735 FILLER_0_6353
*736 FILLER_0_6357
*737 FILLER_0_6369
*738 FILLER_0_6381
*739 FILLER_0_6385
*740 FILLER_0_6397
*741 FILLER_0_6409
*742 FILLER_0_641
*743 FILLER_0_6413
*744 FILLER_0_6425
*745 FILLER_0_6437
*746 FILLER_0_6441
*747 FILLER_0_645
*748 FILLER_0_6453
*749 FILLER_0_6465
*750 FILLER_0_6469
*751 FILLER_0_6481
*752 FILLER_0_6493
*753 FILLER_0_6497
*754 FILLER_0_6509
*755 FILLER_0_6521
*756 FILLER_0_6525
*757 FILLER_0_6537
*758 FILLER_0_6549
*759 FILLER_0_6553
*760 FILLER_0_6565
*761 FILLER_0_657
*762 FILLER_0_6577
*763 FILLER_0_6581
*764 FILLER_0_6593
*765 FILLER_0_6605
*766 FILLER_0_6609
*767 FILLER_0_6621
*768 FILLER_0_6633
*769 FILLER_0_6637
*770 FILLER_0_6649
*771 FILLER_0_6661
*772 FILLER_0_6665
*773 FILLER_0_6677
*774 FILLER_0_6689
*775 FILLER_0_669
*776 FILLER_0_6693
*777 FILLER_0_6705
*778 FILLER_0_6717
*779 FILLER_0_6721
*780 FILLER_0_673
*781 FILLER_0_6733
*782 FILLER_0_6745
*783 FILLER_0_6749
*784 FILLER_0_6761
*785 FILLER_0_6773
*786 FILLER_0_6777
*787 FILLER_0_6789
*788 FILLER_0_6801
*789 FILLER_0_6805
*790 FILLER_0_6817
*791 FILLER_0_6829
*792 FILLER_0_6833
*793 FILLER_0_6845
*794 FILLER_0_685
*795 FILLER_0_6857
*796 FILLER_0_6861
*797 FILLER_0_6873
*798 FILLER_0_6885
*799 FILLER_0_6889
*800 FILLER_0_69
*801 FILLER_0_6901
*802 FILLER_0_6913
*803 FILLER_0_6917
*804 FILLER_0_6929
*805 FILLER_0_6941
*806 FILLER_0_6945
*807 FILLER_0_6957
*808 FILLER_0_6969
*809 FILLER_0_697
*810 FILLER_0_6973
*811 FILLER_0_6985
*812 FILLER_0_6997
*813 FILLER_0_7001
*814 FILLER_0_701
*815 FILLER_0_7013
*816 FILLER_0_7025
*817 FILLER_0_7029
*818 FILLER_0_7041
*819 FILLER_0_7053
*820 FILLER_0_7057
*821 FILLER_0_7069
*822 FILLER_0_7081
*823 FILLER_0_7085
*824 FILLER_0_7097
*825 FILLER_0_7109
*826 FILLER_0_7113
*827 FILLER_0_7125
*828 FILLER_0_713
*829 FILLER_0_7137
*830 FILLER_0_7141
*831 FILLER_0_7153
*832 FILLER_0_7165
*833 FILLER_0_7169
*834 FILLER_0_7181
*835 FILLER_0_7193
*836 FILLER_0_7197
*837 FILLER_0_7209
*838 FILLER_0_7221
*839 FILLER_0_7225
*840 FILLER_0_7237
*841 FILLER_0_7249
*842 FILLER_0_725
*843 FILLER_0_7253
*844 FILLER_0_7265
*845 FILLER_0_7277
*846 FILLER_0_7281
*847 FILLER_0_729
*848 FILLER_0_7293
*849 FILLER_0_7305
*850 FILLER_0_7309
*851 FILLER_0_7321
*852 FILLER_0_7333
*853 FILLER_0_7337
*854 FILLER_0_7349
*855 FILLER_0_7361
*856 FILLER_0_7365
*857 FILLER_0_7377
*858 FILLER_0_7389
*859 FILLER_0_7393
*860 FILLER_0_7405
*861 FILLER_0_741
*862 FILLER_0_7417
*863 FILLER_0_7421
*864 FILLER_0_7433
*865 FILLER_0_7445
*866 FILLER_0_7449
*867 FILLER_0_7461
*868 FILLER_0_7473
*869 FILLER_0_7477
*870 FILLER_0_7489
*871 FILLER_0_7501
*872 FILLER_0_7505
*873 FILLER_0_7517
*874 FILLER_0_7529
*875 FILLER_0_753
*876 FILLER_0_7533
*877 FILLER_0_7545
*878 FILLER_0_7557
*879 FILLER_0_7561
*880 FILLER_0_757
*881 FILLER_0_7573
*882 FILLER_0_7585
*883 FILLER_0_7589
*884 FILLER_0_7601
*885 FILLER_0_7613
*886 FILLER_0_7617
*887 FILLER_0_7629
*888 FILLER_0_7641
*889 FILLER_0_7645
*890 FILLER_0_7657
*891 FILLER_0_7669
*892 FILLER_0_7673
*893 FILLER_0_7685
*894 FILLER_0_769
*895 FILLER_0_7697
*896 FILLER_0_7701
*897 FILLER_0_7713
*898 FILLER_0_7725
*899 FILLER_0_7729
*900 FILLER_0_7741
*901 FILLER_0_7753
*902 FILLER_0_7757
*903 FILLER_0_7769
*904 FILLER_0_7781
*905 FILLER_0_7785
*906 FILLER_0_7797
*907 FILLER_0_7809
*908 FILLER_0_781
*909 FILLER_0_7813
*910 FILLER_0_7825
*911 FILLER_0_7837
*912 FILLER_0_7841
*913 FILLER_0_785
*914 FILLER_0_7853
*915 FILLER_0_7865
*916 FILLER_0_7869
*917 FILLER_0_7881
*918 FILLER_0_7893
*919 FILLER_0_7897
*920 FILLER_0_7909
*921 FILLER_0_7921
*922 FILLER_0_7925
*923 FILLER_0_7937
*924 FILLER_0_7949
*925 FILLER_0_7953
*926 FILLER_0_7965
*927 FILLER_0_797
*928 FILLER_0_7977
*929 FILLER_0_7981
*930 FILLER_0_7993
*931 FILLER_0_8005
*932 FILLER_0_8009
*933 FILLER_0_8021
*934 FILLER_0_8033
*935 FILLER_0_8037
*936 FILLER_0_8049
*937 FILLER_0_8061
*938 FILLER_0_8065
*939 FILLER_0_8077
*940 FILLER_0_8089
*941 FILLER_0_809
*942 FILLER_0_8093
*943 FILLER_0_81
*944 FILLER_0_8105
*945 FILLER_0_8117
*946 FILLER_0_8121
*947 FILLER_0_813
*948 FILLER_0_8133
*949 FILLER_0_8145
*950 FILLER_0_8149
*951 FILLER_0_8161
*952 FILLER_0_8173
*953 FILLER_0_8177
*954 FILLER_0_8189
*955 FILLER_0_8201
*956 FILLER_0_8205
*957 FILLER_0_8217
*958 FILLER_0_8229
*959 FILLER_0_8233
*960 FILLER_0_8245
*961 FILLER_0_825
*962 FILLER_0_8257
*963 FILLER_0_8261
*964 FILLER_0_8273
*965 FILLER_0_8285
*966 FILLER_0_8289
*967 FILLER_0_8301
*968 FILLER_0_8313
*969 FILLER_0_8317
*970 FILLER_0_8329
*971 FILLER_0_8341
*972 FILLER_0_8345
*973 FILLER_0_8357
*974 FILLER_0_8369
*975 FILLER_0_837
*976 FILLER_0_8373
*977 FILLER_0_8385
*978 FILLER_0_8397
*979 FILLER_0_8401
*980 FILLER_0_841
*981 FILLER_0_8413
*982 FILLER_0_8425
*983 FILLER_0_8429
*984 FILLER_0_8441
*985 FILLER_0_8453
*986 FILLER_0_8457
*987 FILLER_0_8469
*988 FILLER_0_8481
*989 FILLER_0_8485
*990 FILLER_0_8497
*991 FILLER_0_85
*992 FILLER_0_8509
*993 FILLER_0_8513
*994 FILLER_0_8525
*995 FILLER_0_853
*996 FILLER_0_8537
*997 FILLER_0_8541
*998 FILLER_0_8553
*999 FILLER_0_8565
*1000 FILLER_0_8569
*1001 FILLER_0_8581
*1002 FILLER_0_8593
*1003 FILLER_0_8597
*1004 FILLER_0_8609
*1005 FILLER_0_8621
*1006 FILLER_0_8625
*1007 FILLER_0_8637
*1008 FILLER_0_8649
*1009 FILLER_0_865
*1010 FILLER_0_8653
*1011 FILLER_0_8665
*1012 FILLER_0_8677
*1013 FILLER_0_8681
*1014 FILLER_0_869
*1015 FILLER_0_8693
*1016 FILLER_0_8705
*1017 FILLER_0_8709
*1018 FILLER_0_8721
*1019 FILLER_0_8733
*1020 FILLER_0_8737
*1021 FILLER_0_8749
*1022 FILLER_0_8761
*1023 FILLER_0_8765
*1024 FILLER_0_8777
*1025 FILLER_0_8789
*1026 FILLER_0_8793
*1027 FILLER_0_8805
*1028 FILLER_0_881
*1029 FILLER_0_8817
*1030 FILLER_0_8821
*1031 FILLER_0_8833
*1032 FILLER_0_8845
*1033 FILLER_0_8849
*1034 FILLER_0_8861
*1035 FILLER_0_8873
*1036 FILLER_0_8877
*1037 FILLER_0_8889
*1038 FILLER_0_8901
*1039 FILLER_0_8905
*1040 FILLER_0_8917
*1041 FILLER_0_8929
*1042 FILLER_0_893
*1043 FILLER_0_8933
*1044 FILLER_0_8945
*1045 FILLER_0_8957
*1046 FILLER_0_8961
*1047 FILLER_0_897
*1048 FILLER_0_8973
*1049 FILLER_0_8985
*1050 FILLER_0_8989
*1051 FILLER_0_9001
*1052 FILLER_0_9013
*1053 FILLER_0_9017
*1054 FILLER_0_9029
*1055 FILLER_0_9041
*1056 FILLER_0_9045
*1057 FILLER_0_9057
*1058 FILLER_0_9069
*1059 FILLER_0_9073
*1060 FILLER_0_9085
*1061 FILLER_0_909
*1062 FILLER_0_9097
*1063 FILLER_0_9101
*1064 FILLER_0_9113
*1065 FILLER_0_9125
*1066 FILLER_0_9129
*1067 FILLER_0_9141
*1068 FILLER_0_9153
*1069 FILLER_0_9157
*1070 FILLER_0_9169
*1071 FILLER_0_9181
*1072 FILLER_0_9185
*1073 FILLER_0_9197
*1074 FILLER_0_9209
*1075 FILLER_0_921
*1076 FILLER_0_9213
*1077 FILLER_0_9225
*1078 FILLER_0_9237
*1079 FILLER_0_9241
*1080 FILLER_0_925
*1081 FILLER_0_9253
*1082 FILLER_0_9265
*1083 FILLER_0_9269
*1084 FILLER_0_9281
*1085 FILLER_0_9293
*1086 FILLER_0_9297
*1087 FILLER_0_9309
*1088 FILLER_0_9321
*1089 FILLER_0_9325
*1090 FILLER_0_9337
*1091 FILLER_0_9349
*1092 FILLER_0_9353
*1093 FILLER_0_9365
*1094 FILLER_0_937
*1095 FILLER_0_9377
*1096 FILLER_0_9381
*1097 FILLER_0_9393
*1098 FILLER_0_9405
*1099 FILLER_0_9409
*1100 FILLER_0_9421
*1101 FILLER_0_9433
*1102 FILLER_0_9437
*1103 FILLER_0_9449
*1104 FILLER_0_9461
*1105 FILLER_0_9465
*1106 FILLER_0_9477
*1107 FILLER_0_9489
*1108 FILLER_0_949
*1109 FILLER_0_9493
*1110 FILLER_0_9505
*1111 FILLER_0_9517
*1112 FILLER_0_9521
*1113 FILLER_0_953
*1114 FILLER_0_9533
*1115 FILLER_0_9545
*1116 FILLER_0_9549
*1117 FILLER_0_9561
*1118 FILLER_0_9573
*1119 FILLER_0_9577
*1120 FILLER_0_9589
*1121 FILLER_0_9601
*1122 FILLER_0_9605
*1123 FILLER_0_9617
*1124 FILLER_0_9629
*1125 FILLER_0_9633
*1126 FILLER_0_9645
*1127 FILLER_0_965
*1128 FILLER_0_9657
*1129 FILLER_0_9661
*1130 FILLER_0_9673
*1131 FILLER_0_9685
*1132 FILLER_0_9689
*1133 FILLER_0_97
*1134 FILLER_0_9701
*1135 FILLER_0_9713
*1136 FILLER_0_9717
*1137 FILLER_0_9729
*1138 FILLER_0_9741
*1139 FILLER_0_9745
*1140 FILLER_0_9757
*1141 FILLER_0_9769
*1142 FILLER_0_977
*1143 FILLER_0_9773
*1144 FILLER_0_9785
*1145 FILLER_0_9797
*1146 FILLER_0_9801
*1147 FILLER_0_981
*1148 FILLER_0_9813
*1149 FILLER_0_9825
*1150 FILLER_0_9829
*1151 FILLER_0_9841
*1152 FILLER_0_9853
*1153 FILLER_0_9857
*1154 FILLER_0_9869
*1155 FILLER_0_9881
*1156 FILLER_0_9885
*1157 FILLER_0_9897
*1158 FILLER_0_9909
*1159 FILLER_0_9913
*1160 FILLER_0_9925
*1161 FILLER_0_993
*1162 FILLER_0_9937
*1163 FILLER_0_9941
*1164 FILLER_0_9953
*1165 FILLER_0_9965
*1166 FILLER_0_9969
*1167 FILLER_0_9981
*1168 FILLER_0_9993
*1169 FILLER_0_9997
*1170 FILLER_1_10005
*1171 FILLER_1_1001
*1172 FILLER_1_10017
*1173 FILLER_1_10023
*1174 FILLER_1_10025
*1175 FILLER_1_10037
*1176 FILLER_1_10049
*1177 FILLER_1_10061
*1178 FILLER_1_1007
*1179 FILLER_1_10073
*1180 FILLER_1_10079
*1181 FILLER_1_10081
*1182 FILLER_1_1009
*1183 FILLER_1_10093
*1184 FILLER_1_10105
*1185 FILLER_1_10117
*1186 FILLER_1_10129
*1187 FILLER_1_10135
*1188 FILLER_1_10137
*1189 FILLER_1_10149
*1190 FILLER_1_10161
*1191 FILLER_1_10173
*1192 FILLER_1_10185
*1193 FILLER_1_10191
*1194 FILLER_1_10193
*1195 FILLER_1_10205
*1196 FILLER_1_1021
*1197 FILLER_1_10217
*1198 FILLER_1_10229
*1199 FILLER_1_10241
*1200 FILLER_1_10247
*1201 FILLER_1_10249
*1202 FILLER_1_10261
*1203 FILLER_1_10273
*1204 FILLER_1_10285
*1205 FILLER_1_10297
*1206 FILLER_1_10303
*1207 FILLER_1_10305
*1208 FILLER_1_10317
*1209 FILLER_1_10329
*1210 FILLER_1_1033
*1211 FILLER_1_10341
*1212 FILLER_1_10353
*1213 FILLER_1_10359
*1214 FILLER_1_10361
*1215 FILLER_1_10373
*1216 FILLER_1_10385
*1217 FILLER_1_10397
*1218 FILLER_1_10409
*1219 FILLER_1_10415
*1220 FILLER_1_10417
*1221 FILLER_1_10429
*1222 FILLER_1_10441
*1223 FILLER_1_1045
*1224 FILLER_1_10453
*1225 FILLER_1_10465
*1226 FILLER_1_10471
*1227 FILLER_1_10473
*1228 FILLER_1_10485
*1229 FILLER_1_10497
*1230 FILLER_1_105
*1231 FILLER_1_10509
*1232 FILLER_1_10521
*1233 FILLER_1_10527
*1234 FILLER_1_10529
*1235 FILLER_1_10541
*1236 FILLER_1_10553
*1237 FILLER_1_10565
*1238 FILLER_1_1057
*1239 FILLER_1_10577
*1240 FILLER_1_10583
*1241 FILLER_1_10585
*1242 FILLER_1_10597
*1243 FILLER_1_10609
*1244 FILLER_1_10621
*1245 FILLER_1_1063
*1246 FILLER_1_10633
*1247 FILLER_1_10639
*1248 FILLER_1_10641
*1249 FILLER_1_1065
*1250 FILLER_1_10653
*1251 FILLER_1_10665
*1252 FILLER_1_10677
*1253 FILLER_1_10689
*1254 FILLER_1_10695
*1255 FILLER_1_10697
*1256 FILLER_1_10709
*1257 FILLER_1_10721
*1258 FILLER_1_10733
*1259 FILLER_1_10745
*1260 FILLER_1_10751
*1261 FILLER_1_10753
*1262 FILLER_1_10765
*1263 FILLER_1_1077
*1264 FILLER_1_10777
*1265 FILLER_1_10789
*1266 FILLER_1_10801
*1267 FILLER_1_10807
*1268 FILLER_1_10809
*1269 FILLER_1_10821
*1270 FILLER_1_10833
*1271 FILLER_1_10845
*1272 FILLER_1_10857
*1273 FILLER_1_10861
*1274 FILLER_1_1089
*1275 FILLER_1_1101
*1276 FILLER_1_111
*1277 FILLER_1_1113
*1278 FILLER_1_1119
*1279 FILLER_1_1121
*1280 FILLER_1_113
*1281 FILLER_1_1133
*1282 FILLER_1_1145
*1283 FILLER_1_1157
*1284 FILLER_1_1169
*1285 FILLER_1_1175
*1286 FILLER_1_1177
*1287 FILLER_1_1189
*1288 FILLER_1_1201
*1289 FILLER_1_1213
*1290 FILLER_1_1225
*1291 FILLER_1_1231
*1292 FILLER_1_1233
*1293 FILLER_1_1245
*1294 FILLER_1_125
*1295 FILLER_1_1257
*1296 FILLER_1_1269
*1297 FILLER_1_1281
*1298 FILLER_1_1287
*1299 FILLER_1_1289
*1300 FILLER_1_1301
*1301 FILLER_1_1313
*1302 FILLER_1_1325
*1303 FILLER_1_1337
*1304 FILLER_1_1343
*1305 FILLER_1_1345
*1306 FILLER_1_1357
*1307 FILLER_1_1369
*1308 FILLER_1_137
*1309 FILLER_1_1381
*1310 FILLER_1_1393
*1311 FILLER_1_1399
*1312 FILLER_1_1401
*1313 FILLER_1_1413
*1314 FILLER_1_1425
*1315 FILLER_1_1437
*1316 FILLER_1_1449
*1317 FILLER_1_1455
*1318 FILLER_1_1457
*1319 FILLER_1_1469
*1320 FILLER_1_1481
*1321 FILLER_1_149
*1322 FILLER_1_1493
*1323 FILLER_1_15
*1324 FILLER_1_1505
*1325 FILLER_1_1511
*1326 FILLER_1_1513
*1327 FILLER_1_1525
*1328 FILLER_1_1537
*1329 FILLER_1_1549
*1330 FILLER_1_1561
*1331 FILLER_1_1567
*1332 FILLER_1_1569
*1333 FILLER_1_1581
*1334 FILLER_1_1593
*1335 FILLER_1_1605
*1336 FILLER_1_161
*1337 FILLER_1_1617
*1338 FILLER_1_1623
*1339 FILLER_1_1625
*1340 FILLER_1_1637
*1341 FILLER_1_1649
*1342 FILLER_1_1661
*1343 FILLER_1_167
*1344 FILLER_1_1673
*1345 FILLER_1_1679
*1346 FILLER_1_1681
*1347 FILLER_1_169
*1348 FILLER_1_1693
*1349 FILLER_1_1705
*1350 FILLER_1_1717
*1351 FILLER_1_1729
*1352 FILLER_1_1735
*1353 FILLER_1_1737
*1354 FILLER_1_1749
*1355 FILLER_1_1761
*1356 FILLER_1_1773
*1357 FILLER_1_1785
*1358 FILLER_1_1791
*1359 FILLER_1_1793
*1360 FILLER_1_1805
*1361 FILLER_1_181
*1362 FILLER_1_1817
*1363 FILLER_1_1829
*1364 FILLER_1_1841
*1365 FILLER_1_1847
*1366 FILLER_1_1849
*1367 FILLER_1_1861
*1368 FILLER_1_1873
*1369 FILLER_1_1885
*1370 FILLER_1_1897
*1371 FILLER_1_1903
*1372 FILLER_1_1905
*1373 FILLER_1_1917
*1374 FILLER_1_1929
*1375 FILLER_1_193
*1376 FILLER_1_1941
*1377 FILLER_1_1953
*1378 FILLER_1_1959
*1379 FILLER_1_1961
*1380 FILLER_1_1973
*1381 FILLER_1_1985
*1382 FILLER_1_1997
*1383 FILLER_1_2009
*1384 FILLER_1_2015
*1385 FILLER_1_2017
*1386 FILLER_1_2029
*1387 FILLER_1_2041
*1388 FILLER_1_205
*1389 FILLER_1_2053
*1390 FILLER_1_2065
*1391 FILLER_1_2071
*1392 FILLER_1_2073
*1393 FILLER_1_2085
*1394 FILLER_1_2097
*1395 FILLER_1_2109
*1396 FILLER_1_2121
*1397 FILLER_1_2127
*1398 FILLER_1_2129
*1399 FILLER_1_2141
*1400 FILLER_1_2153
*1401 FILLER_1_2165
*1402 FILLER_1_217
*1403 FILLER_1_2177
*1404 FILLER_1_2183
*1405 FILLER_1_2185
*1406 FILLER_1_2197
*1407 FILLER_1_2209
*1408 FILLER_1_2221
*1409 FILLER_1_223
*1410 FILLER_1_2233
*1411 FILLER_1_2239
*1412 FILLER_1_2241
*1413 FILLER_1_225
*1414 FILLER_1_2253
*1415 FILLER_1_2265
*1416 FILLER_1_2277
*1417 FILLER_1_2289
*1418 FILLER_1_2295
*1419 FILLER_1_2297
*1420 FILLER_1_2309
*1421 FILLER_1_2321
*1422 FILLER_1_2333
*1423 FILLER_1_2345
*1424 FILLER_1_2351
*1425 FILLER_1_2353
*1426 FILLER_1_2365
*1427 FILLER_1_237
*1428 FILLER_1_2377
*1429 FILLER_1_2389
*1430 FILLER_1_2401
*1431 FILLER_1_2407
*1432 FILLER_1_2409
*1433 FILLER_1_2421
*1434 FILLER_1_2433
*1435 FILLER_1_2445
*1436 FILLER_1_2457
*1437 FILLER_1_2463
*1438 FILLER_1_2465
*1439 FILLER_1_2477
*1440 FILLER_1_2489
*1441 FILLER_1_249
*1442 FILLER_1_2501
*1443 FILLER_1_2513
*1444 FILLER_1_2519
*1445 FILLER_1_2521
*1446 FILLER_1_2533
*1447 FILLER_1_2545
*1448 FILLER_1_2557
*1449 FILLER_1_2569
*1450 FILLER_1_2575
*1451 FILLER_1_2577
*1452 FILLER_1_2589
*1453 FILLER_1_2601
*1454 FILLER_1_261
*1455 FILLER_1_2613
*1456 FILLER_1_2625
*1457 FILLER_1_2631
*1458 FILLER_1_2633
*1459 FILLER_1_2645
*1460 FILLER_1_2657
*1461 FILLER_1_2669
*1462 FILLER_1_2681
*1463 FILLER_1_2687
*1464 FILLER_1_2689
*1465 FILLER_1_27
*1466 FILLER_1_2701
*1467 FILLER_1_2713
*1468 FILLER_1_2725
*1469 FILLER_1_273
*1470 FILLER_1_2737
*1471 FILLER_1_2743
*1472 FILLER_1_2745
*1473 FILLER_1_2757
*1474 FILLER_1_2769
*1475 FILLER_1_2781
*1476 FILLER_1_279
*1477 FILLER_1_2793
*1478 FILLER_1_2799
*1479 FILLER_1_2801
*1480 FILLER_1_281
*1481 FILLER_1_2813
*1482 FILLER_1_2825
*1483 FILLER_1_2837
*1484 FILLER_1_2849
*1485 FILLER_1_2855
*1486 FILLER_1_2857
*1487 FILLER_1_2869
*1488 FILLER_1_2881
*1489 FILLER_1_2893
*1490 FILLER_1_2905
*1491 FILLER_1_2911
*1492 FILLER_1_2913
*1493 FILLER_1_2925
*1494 FILLER_1_293
*1495 FILLER_1_2937
*1496 FILLER_1_2949
*1497 FILLER_1_2961
*1498 FILLER_1_2967
*1499 FILLER_1_2969
*1500 FILLER_1_2981
*1501 FILLER_1_2993
*1502 FILLER_1_3
*1503 FILLER_1_3005
*1504 FILLER_1_3017
*1505 FILLER_1_3023
*1506 FILLER_1_3025
*1507 FILLER_1_3037
*1508 FILLER_1_3049
*1509 FILLER_1_305
*1510 FILLER_1_3061
*1511 FILLER_1_3073
*1512 FILLER_1_3079
*1513 FILLER_1_3081
*1514 FILLER_1_3093
*1515 FILLER_1_3105
*1516 FILLER_1_3117
*1517 FILLER_1_3129
*1518 FILLER_1_3135
*1519 FILLER_1_3137
*1520 FILLER_1_3149
*1521 FILLER_1_3161
*1522 FILLER_1_317
*1523 FILLER_1_3173
*1524 FILLER_1_3185
*1525 FILLER_1_3191
*1526 FILLER_1_3193
*1527 FILLER_1_3205
*1528 FILLER_1_3217
*1529 FILLER_1_3229
*1530 FILLER_1_3241
*1531 FILLER_1_3247
*1532 FILLER_1_3249
*1533 FILLER_1_3261
*1534 FILLER_1_3273
*1535 FILLER_1_3285
*1536 FILLER_1_329
*1537 FILLER_1_3297
*1538 FILLER_1_3303
*1539 FILLER_1_3305
*1540 FILLER_1_3317
*1541 FILLER_1_3329
*1542 FILLER_1_3341